geometry optimzed in LAMMPS
_audit_creation_date              2020-11-30 
_audit_creation_method            'lammps2cif' 
_symmetry_space_group_name_H-M    'P1' 
_symmetry_Int_Tables_number       1 
_symmetry_cell_setting            triclinic 
loop_ 
_symmetry_equiv_pos_as_xyz 
  x,y,z 
_cell_length_a                    61.56032286775536 
_cell_length_b                    61.79912709874938 
_cell_length_c                    44.678572539853754 
_cell_angle_alpha                 72.92053590555659 
_cell_angle_beta                  84.40480383892735 
_cell_angle_gamma                 119.77323487143582 
loop_ 
_atom_site_label 
_atom_site_type_symbol 
_atom_site_fract_x 
_atom_site_fract_y 
_atom_site_fract_z 
_atom_site_charge 
Zr1        Zr  0.47686895  0.01651922  0.36845440     2.17510
O2          O  0.43911780  0.49481424  0.41571930    -0.51920
O3          O  0.48812351  0.06269539  0.35290994    -0.75120
O4          O  0.49110616  0.02754782  0.41462729    -0.81910
O5          O  0.43438882  0.49898471  0.31101961    -0.83650
O6          O  0.02655940  0.02526166  0.41604022    -0.79280
O7          O  0.43709745  0.01016446  0.35537173    -0.90910
O8          O  0.02643084  0.09040852  0.31183758    -0.76870
O9          O  0.02336750  0.04214809  0.35296872    -0.86360
O10         O  0.49112036  0.03713206  0.31000452    -0.86050
O11         O  0.48791391  0.48410497  0.39091293    -0.72810
O12         O  0.45900556  0.48015719  0.34972932    -0.84950
Zr13       Zr  0.03290041  0.49614868  0.29745326     2.26420
Zr14       Zr  0.03483574  0.01023718  0.37432240     2.06270
Zr15       Zr  0.47408027  0.50106395  0.29115899     2.10050
Zr16       Zr  0.03762168  0.06281653  0.29486712     1.78760
O17         O  0.43897838  0.46080647  0.28673267    -0.93750
O18         O  0.07725120  0.09672212  0.30220771    -0.41560
O19         O  0.02095113  0.02754423  0.27506346    -0.78190
O20         O  0.05090780  0.03245792  0.31582695    -0.96880
O21         O  0.01791763  0.47431836  0.35553790    -0.90180
O22         O  0.48627548  0.46967730  0.31189757    -0.93020
C23         C  0.50730621  0.08614372  0.33234592     1.00730
C24         C  0.42540509  0.00343742  0.33413885     1.13660
C25         C  0.00997648  0.02999723  0.42683473     1.04440
O26         O  0.07599474  0.04436401  0.37850298    -0.95180
O27         O  0.07122978  0.00580721  0.35975542    -0.90920
O28         O  0.07163499  0.50052615  0.31143862    -0.84070
C29         C  0.08123235  0.50339021  0.33529893     1.11080
O30         O  0.43097403  0.42541788  0.41418937    -0.97150
Zr31       Zr  0.47144998  0.44888117  0.37022937     1.88940
O32         O  0.02006404  0.45017827  0.30916829    -0.73800
O33         O  0.02698559  0.47481901  0.42470983    -0.53060
O34         O  0.47551615  0.42412561  0.42059769    -0.97740
O35         O  0.43333489  0.41450617  0.36082091    -0.54960
O36         O  0.48532510  0.42202788  0.35505220    -0.74320
C37         C  0.00298416  0.42678192  0.33158669     0.98030
O38         O  0.07272668  0.01508662  0.25464292    -0.63140
O39         O  0.47052971  0.03167751  0.24604141    -0.57940
O40         O  0.02636151  0.49693273  0.24476231    -0.94620
O41         O  0.49349246  0.50348344  0.23881562    -0.93050
O42         O  0.03169497  0.08775000  0.24651817    -0.93410
O43         O  0.07555438  0.08637351  0.24729558    -0.92190
C44         C  0.51211343  0.50120028  0.22809087     1.16870
H45         H  0.48483308  0.04860162  0.30186209     0.32810
H46         H  0.06980275  0.04269879  0.30878098     0.43670
H47         H  0.48016823  0.45642894  0.30221502     0.37190
H48         H  0.48114792  0.47611302  0.41451087     0.33670
H49         H  0.08042644  0.11437610  0.28830997     0.25460
H50         H  0.04329573  0.48317464  0.43102550     0.31400
H51         H  0.46784319  0.40552747  0.42134176     0.37310
H52         H  0.04212619  0.10689558  0.24409024     0.31770
H53         H  0.45351845  0.02000989  0.24275319     0.30640
H54         H  0.43436525  0.46794086  0.26724450     0.32320
H55         H  0.43163699  0.39720052  0.37267048     0.31290
H56         H  0.07729334  0.07185472  0.24481763     0.35290
H57         H  0.06919532  0.00101120  0.24596325     0.28020
H58         H  0.44093645  0.50972648  0.42169247     0.32260
H59         H  0.42584302  0.40637794  0.42447615     0.35110
H60         H  0.46790770  0.04336449  0.25498247     0.27720
H61         H  0.07436278  0.03016839  0.23654347     0.40590
H62         H  0.07773924  0.06178075  0.36725206     0.30640
H63         H  0.07188335  0.09486798  0.32491397     0.38260
H64         H  0.43873347  0.41802348  0.33740786     0.30110
H65         H  0.01374835  0.47306227  0.44143486     0.30170
H66         H  0.44224800  0.48395165  0.43379675     0.30440
Zr67       Zr  0.48564787  0.27080818  0.36427487     2.17510
O68         O  0.44659415  0.24634541  0.41061079    -0.51920
O69         O  0.49578011  0.31591017  0.35214542    -0.75120
O70         O  0.49899787  0.28041012  0.41110490    -0.81910
O71         O  0.44688857  0.25856404  0.30257603    -0.83650
O72         O  0.03386318  0.27695275  0.41358236    -0.79280
O73         O  0.44716174  0.26652835  0.34905753    -0.90910
O74         O  0.03247561  0.34504226  0.30865985    -0.76870
O75         O  0.03213475  0.29651552  0.35036245    -0.86360
O76         O  0.50119578  0.29339679  0.30608339    -0.86050
O77         O  0.49689264  0.23863506  0.38623763    -0.72810
O78         O  0.46842544  0.23600191  0.34340106    -0.84950
Zr79       Zr  0.04306945  0.25220774  0.29288083     2.26420
Zr80       Zr  0.04382441  0.26456711  0.37029539     2.06270
Zr81       Zr  0.48559050  0.25881218  0.28509700     2.10050
Zr82       Zr  0.04750130  0.31920720  0.29256544     1.78760
O83         O  0.45024048  0.22036147  0.27796079    -0.93750
O84         O  0.08414170  0.35233689  0.30516680    -0.41560
O85         O  0.03225136  0.28478476  0.27106290    -0.78190
O86         O  0.06052506  0.28816115  0.31210698    -0.96880
O87         O  0.02691328  0.22921539  0.35075849    -0.90180
O88         O  0.49657425  0.22648921  0.30591563    -0.93020
C89         C  0.01354959  0.33963802  0.33090942     1.00730
C90         C  0.43693566  0.26196844  0.32598271     1.13660
C91         C  0.01727177  0.28184083  0.42390554     1.04440
O92         O  0.08375861  0.29851936  0.37698950    -0.95180
O93         O  0.08110450  0.26173020  0.35474603    -0.90920
O94         O  0.08190895  0.25665126  0.30638295    -0.84070
C95         C  0.09146035  0.25963396  0.33023165     1.11080
O96         O  0.44055095  0.18176377  0.40884376    -0.97150
Zr97       Zr  0.48042095  0.20456740  0.36417602     1.88940
O98         O  0.03071868  0.20588499  0.30611845    -0.73800
O99         O  0.03676670  0.22837563  0.41910964    -0.53060
O100        O  0.48401128  0.17798891  0.41352147    -0.97740
O101        O  0.44187740  0.17146277  0.35402148    -0.54960
O102        O  0.49273890  0.17759218  0.34774471    -0.74320
C103        C  0.01184048  0.18229473  0.32672642     0.98030
O104        O  0.08240704  0.27306646  0.24825925    -0.63140
O105        O  0.48625019  0.29185932  0.23828261    -0.57940
O106        O  0.03541967  0.25057346  0.24140060    -0.94620
O107        O  0.50599580  0.26206420  0.23329944    -0.93050
O108        O  0.04424756  0.34427494  0.24172040    -0.93410
O109        O  0.08817797  0.34539810  0.24831026    -0.92190
C110        C  0.02305066  0.25749161  0.22367132     1.16870
H111        H  0.49482999  0.30481983  0.29813326     0.32810
H112        H  0.07942157  0.29840196  0.30539777     0.43670
H113        H  0.49052117  0.21354663  0.29578354     0.37190
H114        H  0.48987881  0.23020127  0.40981769     0.33670
H115        H  0.08749775  0.37010734  0.29137997     0.25460
H116        H  0.05231488  0.23716870  0.42668157     0.31400
H117        H  0.47498320  0.15934446  0.41411022     0.37310
H118        H  0.05162450  0.36274958  0.24128501     0.31770
H119        H  0.46996131  0.28134900  0.23284996     0.30640
H120        H  0.44682077  0.22859612  0.25792402     0.32320
H121        H  0.43982910  0.15385879  0.36515981     0.31290
H122        H  0.08888934  0.33170293  0.24182364     0.35290
H123        H  0.07977439  0.25906235  0.23982961     0.28020
H124        H  0.44689783  0.26047935  0.41707713     0.32260
H125        H  0.43443559  0.16236153  0.41800909     0.35110
H126        H  0.48360412  0.30366623  0.24692195     0.27720
H127        H  0.08263291  0.28723994  0.23037046     0.40590
H128        H  0.08526060  0.31586063  0.36613240     0.30640
H129        H  0.07680132  0.34940277  0.32778637     0.38260
H130        H  0.44723664  0.17554815  0.33039980     0.30110
H131        H  0.02215169  0.22458866  0.43583934     0.30170
H132        H  0.45001670  0.23584849  0.42870725     0.30440
Zr133      Zr  0.22651094  0.01742690  0.36822903     2.17510
O134        O  0.18807414  0.49507974  0.41478583    -0.51920
O135        O  0.23724254  0.06342138  0.35267658    -0.75120
O136        O  0.23962156  0.02787850  0.41504849    -0.81910
O137        O  0.18712939  0.50414008  0.30741249    -0.83650
O138        O  0.27637063  0.02764435  0.41624459    -0.79280
O139        O  0.18685301  0.01076244  0.35502454    -0.90910
O140        O  0.27556363  0.09124051  0.31164257    -0.76870
O141        O  0.27294017  0.04307909  0.35402190    -0.86360
O142        O  0.24197654  0.03875981  0.30977971    -0.86050
O143        O  0.23729770  0.48493387  0.39127972    -0.72810
O144        O  0.20932941  0.48167192  0.34848878    -0.84950
Zr145      Zr  0.28392682  0.49770256  0.29811793     2.26420
Zr146      Zr  0.28420167  0.01114778  0.37588664     2.06270
Zr147      Zr  0.22556308  0.50330818  0.29000737     2.10050
Zr148      Zr  0.28842969  0.06423394  0.29603434     1.78760
O149        O  0.18986598  0.46290439  0.28655538    -0.93750
O150        O  0.32650535  0.09745903  0.30655967    -0.41560
O151        O  0.27234852  0.02940481  0.27552078    -0.78190
O152        O  0.30135112  0.03356077  0.31743639    -0.96880
O153        O  0.26791496  0.47577597  0.35622645    -0.90180
O154        O  0.23732271  0.47163401  0.31127867    -0.93020
C155        C  0.25623315  0.08688799  0.33190747     1.00730
C156        C  0.17692209  0.00662233  0.33170657     1.13660
C157        C  0.25892155  0.03147337  0.42674821     1.04440
O158        O  0.32368525  0.04413976  0.38429535    -0.95180
O159        O  0.32102039  0.00734302  0.36125745    -0.90920
O160        O  0.31888177  0.49583530  0.31726476    -0.84070
C161        C  0.32955492  0.50134537  0.33961098     1.11080
O162        O  0.17954608  0.42734157  0.41055545    -0.97150
Zr163      Zr  0.22155058  0.45030779  0.36959155     1.88940
O164        O  0.27034303  0.45166312  0.30799470    -0.73800
O165        O  0.27446470  0.47456676  0.42622692    -0.53060
O166        O  0.22340991  0.42504888  0.42151538    -0.97740
O167        O  0.18511041  0.41516554  0.35885401    -0.54960
O168        O  0.23722984  0.42430216  0.35574746    -0.74320
C169        C  0.25430085  0.42869025  0.33183379     0.98030
O170        O  0.32574597  0.02104904  0.25623492    -0.63140
O171        O  0.22327027  0.03382554  0.24327207    -0.57940
O172        O  0.27885053  0.49967417  0.24435561    -0.94620
O173        O  0.24554650  0.50550018  0.23809707    -0.93050
O174        O  0.28471754  0.08969522  0.24591533    -0.93410
O175        O  0.32808127  0.08873648  0.25062409    -0.92190
C176        C  0.26461950  0.50382162  0.22739778     1.16870
H177        H  0.23585181  0.05032728  0.30131032     0.32810
H178        H  0.32023964  0.04358604  0.31097058     0.43670
H179        H  0.23140388  0.45854797  0.30135876     0.37190
H180        H  0.23012902  0.47672336  0.41483848     0.33670
H181        H  0.32936932  0.11518463  0.29366550     0.25460
H182        H  0.29142013  0.48086044  0.43113118     0.31400
H183        H  0.21416203  0.40604950  0.42333796     0.37310
H184        H  0.29437232  0.10867228  0.24419744     0.31770
H185        H  0.20574904  0.02265441  0.24080444     0.30640
H186        H  0.18653592  0.46978451  0.26572520     0.32320
H187        H  0.18293388  0.39797550  0.37250818     0.31290
H188        H  0.32843258  0.07438956  0.24541712     0.35290
H189        H  0.32482072  0.03260372  0.23639053     0.28020
H190        H  0.18977445  0.50963575  0.42148682     0.32260
H191        H  0.17433100  0.40838610  0.42206086     0.35110
H192        H  0.22228839  0.04692624  0.25086593     0.27720
H193        H  0.33886268  0.03442624  0.26339980     0.40590
H194        H  0.33236804  0.06042901  0.36353148     0.30640
H195        H  0.32025734  0.09430617  0.32965209     0.38260
H196        H  0.19178711  0.41791737  0.33610019     0.30110
H197        H  0.26371512  0.47526877  0.44344200     0.30170
H198        H  0.19069221  0.48356955  0.43275594     0.30440
Zr199      Zr  0.23732122  0.27327014  0.36477006     2.17510
O200        O  0.20049267  0.25088132  0.41342998    -0.51920
O201        O  0.24739843  0.31863194  0.35093756    -0.75120
O202        O  0.25280882  0.28412417  0.41020903    -0.81910
O203        O  0.19708327  0.26077354  0.30489455    -0.83650
O204        O  0.28673036  0.27919686  0.41275508    -0.79280
O205        O  0.19744839  0.26703561  0.35271019    -0.90910
O206        O  0.28298667  0.34693593  0.30587782    -0.76870
O207        O  0.28377219  0.29889618  0.34941815    -0.86360
O208        O  0.25164208  0.29480286  0.30634775    -0.86050
O209        O  0.24812028  0.24071177  0.38636094    -0.72810
O210        O  0.21896329  0.23785831  0.34468639    -0.84950
Zr211      Zr  0.29283740  0.25317906  0.29269478     2.26420
Zr212      Zr  0.29498819  0.26658428  0.36924635     2.06270
Zr213      Zr  0.23489656  0.25964014  0.28616773     2.10050
Zr214      Zr  0.29802307  0.32056937  0.29147010     1.78760
O215        O  0.19835625  0.22011217  0.28224523    -0.93750
O216        O  0.33454408  0.35460021  0.30321850    -0.41560
O217        O  0.28162068  0.28549637  0.27107577    -0.78190
O218        O  0.31108041  0.28950562  0.31105634    -0.96880
O219        O  0.27726275  0.23082645  0.35056689    -0.90180
O220        O  0.24622086  0.22758685  0.30664894    -0.93020
C221        C  0.26448490  0.34197935  0.32833446     1.00730
C222        C  0.18721295  0.26316914  0.32951299     1.13660
C223        C  0.27106081  0.28508611  0.42286870     1.04440
O224        O  0.33647311  0.30161564  0.37162232    -0.95180
O225        O  0.33112146  0.26239536  0.35460476    -0.90920
O226        O  0.32861314  0.25197323  0.31003251    -0.84070
C227        C  0.33939251  0.25668742  0.33257610     1.11080
O228        O  0.19129796  0.18375102  0.41004651    -0.97150
Zr229      Zr  0.23078882  0.20618907  0.36493382     1.88940
O230        O  0.27888797  0.20660598  0.30404686    -0.73800
O231        O  0.28899870  0.23145839  0.41852412    -0.53060
O232        O  0.23497318  0.17991438  0.41394618    -0.97740
O233        O  0.19175103  0.17296457  0.35566502    -0.54960
O234        O  0.24252600  0.17885049  0.34811110    -0.74320
C235        C  0.26058131  0.18318656  0.32572695     0.98030
O236        O  0.33307222  0.27672335  0.24795020    -0.63140
O237        O  0.23317599  0.29098552  0.23980193    -0.57940
O238        O  0.28621597  0.25340324  0.24045190    -0.94620
O239        O  0.25373476  0.26065931  0.23451969    -0.93050
O240        O  0.29488928  0.34486903  0.23998518    -0.93410
O241        O  0.33886943  0.34597463  0.24769543    -0.92190
C242        C  0.27203600  0.25791279  0.22385255     1.16870
H243        H  0.24518663  0.30614502  0.29844698     0.32810
H244        H  0.32996157  0.29944267  0.30406782     0.43670
H245        H  0.23984757  0.21450474  0.29673376     0.37190
H246        H  0.24146900  0.23250890  0.40997389     0.33670
H247        H  0.33767739  0.37215480  0.28901762     0.25460
H248        H  0.30396283  0.24110420  0.42660915     0.31400
H249        H  0.22585713  0.16122063  0.41469288     0.37310
H250        H  0.30508608  0.36414357  0.23707772     0.31770
H251        H  0.21559103  0.28016561  0.23728904     0.30640
H252        H  0.19660330  0.22711582  0.26027173     0.32320
H253        H  0.18940373  0.15528721  0.36736548     0.31290
H254        H  0.33806057  0.33254442  0.23925103     0.35290
H255        H  0.33198463  0.28988196  0.23021347     0.28020
H256        H  0.20230870  0.26561739  0.41981198     0.32260
H257        H  0.18533351  0.16440459  0.41964056     0.35110
H258        H  0.23250564  0.30409543  0.24768562     0.27720
H259        H  0.34736763  0.28855042  0.25539030     0.40590
H260        H  0.34047101  0.31872505  0.35487340     0.30640
H261        H  0.32724906  0.35199645  0.32568357     0.38260
H262        H  0.19693586  0.17650688  0.33220231     0.30110
H263        H  0.27354407  0.22661295  0.43483858     0.30170
H264        H  0.20424277  0.24020436  0.43087282     0.30440
Zr265      Zr  0.05326895  0.07214695  0.01740885     2.17510
O266        O  0.04515010  0.08653281  0.06025281    -0.51920
O267        O  0.09850152  0.10921802  0.00681425    -0.75120
O268        O  0.04872907  0.04585254  0.07299109    -0.81910
O269        O  0.03991634  0.11706944  0.95458153    -0.83650
O270        O  0.04041573  0.00445772  0.07957514    -0.79280
O271        O  0.04214571  0.10579029  0.00663792    -0.90910
O272        O  0.12483913  0.11035557  0.96632648    -0.76870
O273        O  0.07660145  0.05225405  0.00817416    -0.86360
O274        O  0.07479979  0.09416815  0.96010215    -0.86050
O275        O  0.02009376  0.02452363  0.03484719    -0.72810
O276        O  0.01910485  0.06348321  0.99140881    -0.84950
Zr277      Zr  0.03230264  0.01770479  0.94048284     2.26420
Zr278      Zr  0.04378777  0.00475592  0.02441203     2.06270
Zr279      Zr  0.04097343  0.08482992  0.93406193     2.10050
Zr280      Zr  0.09757030  0.07384440  0.95062031     1.78760
O281        O  0.00655580  0.09114904  0.92073176    -0.93750
O282        O  0.12769605  0.06310242  0.97148726    -0.41560
O283        O  0.06453189  0.06529461  0.92301621    -0.78190
O284        O  0.06613478  0.02642160  0.96692964    -0.96880
O285        O  0.01050288  0.99620179  0.99756315    -0.90180
O286        O  0.00900416  0.03755822  0.95004002    -0.93020
C287        C  0.12088365  0.11971153  0.98677951     1.00730
C288        C  0.03968283  0.12033335  0.98179855     1.13660
C289        C  0.04283716  0.02214724  0.09092175     1.04440
O290        O  0.08026122  0.00260669  0.03783506    -0.95180
O291        O  0.04288805  0.47085919  0.00550829    -0.90920
O292        O  0.03309609  0.47699365  0.95728345    -0.84070
C293        C  0.03820231  0.46432864  0.98086305     1.11080
O294        O  0.46577928  0.02450348  0.04678303    -0.97150
Zr295      Zr  0.48743110  0.01613228  0.00709733     1.88940
O296        O  0.48771201  0.48059606  0.94998935    -0.73800
O297        O  0.01053050  0.45834128  0.06233089    -0.53060
O298        O  0.46148356  0.47545211  0.05759136    -0.97740
O299        O  0.45569838  0.02528397  0.98850928    -0.54960
O300        O  0.46133500  0.47972692  0.99042811    -0.74320
C301        C  0.46541490  0.47040972  0.96997175     0.98030
O302        O  0.05651722  0.01569840  0.89585736    -0.63140
O303        O  0.07596685  0.12829387  0.89132134    -0.57940
O304        O  0.02895888  0.03910086  0.88717051    -0.94620
O305        O  0.03586550  0.07984731  0.88266392    -0.93050
O306        O  0.12356931  0.11332597  0.89900964    -0.93410
O307        O  0.12183605  0.06748955  0.91138355    -0.92190
C308        C  0.03167772  0.06179166  0.87114991     1.16870
H309        H  0.08631856  0.11359916  0.95295852     0.32810
H310        H  0.07546439  0.01867874  0.96147736     0.43670
H311        H  0.99660984  0.03473475  0.93754936     0.37190
H312        H  0.01035756  0.01649897  0.05761981     0.33670
H313        H  0.14534117  0.07966634  0.95902418     0.25460
H314        H  0.01862016  0.45397963  0.07925739     0.31400
H315        H  0.44356032  0.46608208  0.05544929     0.37310
H316        H  0.14165711  0.12241527  0.90068401     0.31770
H317        H  0.06686346  0.13465311  0.87777004     0.30640
H318        H  0.01591179  0.10932385  0.90263360     0.32320
H319        H  0.43850597  0.00788571  0.00012841     0.31290
H320        H  0.10833136  0.05434377  0.90437536     0.35290
H321        H  0.07093748  0.03488407  0.88317048     0.28020
H322        H  0.05946488  0.09047997  0.07058376     0.32260
H323        H  0.44697078  0.00983110  0.05386492     0.35110
H324        H  0.08298736  0.14083216  0.90259598     0.27720
H325        H  0.06571871  0.00730652  0.90534638     0.40590
H326        H  0.08867370  0.01655723  0.04693588     0.30640
H327        H  0.12523481  0.06248874  0.99402128     0.38260
H328        H  0.45849375  0.02757650  0.96531510     0.30110
H329        H  0.99674682  0.45951994  0.07361131     0.30170
H330        H  0.02886907  0.07085519  0.07744261     0.30440
Zr331      Zr  0.05612778  0.32458115  0.01368162     2.17510
O332        O  0.04288738  0.33780725  0.05483596    -0.51920
O333        O  0.10206117  0.35945247  0.00420892    -0.75120
O334        O  0.05432790  0.30082166  0.06875270    -0.81910
O335        O  0.04379444  0.37002647  0.94893574    -0.83650
O336        O  0.04581120  0.25919312  0.07626033    -0.79280
O337        O  0.05098975  0.36250086  0.99871897    -0.90910
O338        O  0.12652455  0.36176096  0.96041070    -0.76870
O339        O  0.07846943  0.30366528  0.00487760    -0.86360
O340        O  0.07633616  0.34497417  0.95621859    -0.86050
O341        O  0.02236245  0.27691265  0.03340947    -0.72810
O342        O  0.02108204  0.31526314  0.98921185    -0.84950
Zr343      Zr  0.03133920  0.26684072  0.94127793     2.26420
Zr344      Zr  0.04503369  0.25614432  0.02327792     2.06270
Zr345      Zr  0.04163424  0.33507854  0.93165696     2.10050
Zr346      Zr  0.09830650  0.32380584  0.94721584     1.78760
O347        O  0.00592664  0.33980033  0.92058777    -0.93750
O348        O  0.12845427  0.31322991  0.96835161    -0.41560
O349        O  0.06414604  0.31445165  0.92148145    -0.78190
O350        O  0.06619279  0.27613606  0.96585774    -0.96880
O351        O  0.01076774  0.24693321  0.99837349    -0.90180
O352        O  0.00895404  0.28771977  0.94998364    -0.93020
C353        C  0.12373433  0.37033253  0.98238167     1.00730
C354        C  0.04714147  0.37583141  0.97424705     1.13660
C355        C  0.04919322  0.27748094  0.08688494     1.04440
O356        O  0.08082987  0.25197052  0.03538545    -0.95180
O357        O  0.04033086  0.21991854  0.00656839    -0.90920
O358        O  0.02931319  0.22479308  0.95927623    -0.84070
C359        C  0.03416584  0.21213931  0.98309452     1.11080
O360        O  0.46899616  0.27823504  0.04636936    -0.97150
Zr361      Zr  0.48856360  0.26775309  0.00725441     1.88940
O362        O  0.48641755  0.22952532  0.95238720    -0.73800
O363        O  0.01117230  0.21106869  0.06385423    -0.53060
O364        O  0.46264724  0.22823494  0.05891685    -0.97740
O365        O  0.45701942  0.27712938  0.98845394    -0.54960
O366        O  0.46127091  0.22992745  0.99284787    -0.74320
C367        C  0.46446656  0.21973338  0.97292451     0.98030
O368        O  0.05742367  0.26534362  0.89818660    -0.63140
O369        O  0.07517548  0.37757511  0.88630714    -0.57940
O370        O  0.02648831  0.28610333  0.88869285    -0.94620
O371        O  0.03629059  0.32834705  0.88123382    -0.93050
O372        O  0.12421972  0.36228779  0.89470642    -0.93410
O373        O  0.12059379  0.31636240  0.90703138    -0.92190
C374        C  0.03058071  0.30914754  0.87130330     1.16870
H375        H  0.08815067  0.36442237  0.94852859     0.32810
H376        H  0.07475905  0.26756617  0.96087645     0.43670
H377        H  0.99618979  0.28456630  0.93802041     0.37190
H378        H  0.01358928  0.26968611  0.05642563     0.33670
H379        H  0.14607671  0.32888495  0.95404935     0.25460
H380        H  0.01989881  0.20642504  0.07969028     0.31400
H381        H  0.44455180  0.21904039  0.05728785     0.37310
H382        H  0.14240574  0.37138047  0.89604763     0.31770
H383        H  0.06554146  0.38525025  0.87639041     0.30640
H384        H  0.01422980  0.35634845  0.90018976     0.32320
H385        H  0.43971080  0.26126296  0.00333222     0.31290
H386        H  0.11488419  0.29713931  0.91737623     0.35290
H387        H  0.07222586  0.28452812  0.88652449     0.28020
H388        H  0.05700798  0.34364901  0.06546490     0.32260
H389        H  0.45004140  0.26390526  0.05434771     0.35110
H390        H  0.08563579  0.38982042  0.89664332     0.27720
H391        H  0.06584266  0.25648983  0.90907505     0.40590
H392        H  0.09172588  0.26761162  0.04103490     0.30640
H393        H  0.12754867  0.31491624  0.98973271     0.38260
H394        H  0.45719560  0.27546662  0.96708627     0.30110
H395        H  0.99894839  0.21374674  0.07587299     0.30170
H396        H  0.02746550  0.32091970  0.07195133     0.30440
Zr397      Zr  0.30557962  0.07357745  0.01552034     2.17510
O398        O  0.29200146  0.08731032  0.05581747    -0.51920
O399        O  0.35144703  0.10831698  0.00641949    -0.75120
O400        O  0.30133030  0.04867007  0.07174446    -0.81910
O401        O  0.29555837  0.12048139  0.94998841    -0.83650
O402        O  0.29002517  0.00605346  0.07888967    -0.79280
O403        O  0.30265588  0.11295510  0.99995169    -0.90910
O404        O  0.37702733  0.10832260  0.96615463    -0.76870
O405        O  0.32742082  0.05196209  0.00750246    -0.86360
O406        O  0.32713032  0.09430799  0.95837257    -0.86050
O407        O  0.27114369  0.02628425  0.03342911    -0.72810
O408        O  0.27158710  0.06549385  0.98923729    -0.84950
Zr409      Zr  0.28188663  0.01737824  0.93991698     2.26420
Zr410      Zr  0.29334609  0.00483468  0.02428037     2.06270
Zr411      Zr  0.29358054  0.08592663  0.93208745     2.10050
Zr412      Zr  0.34843529  0.07241998  0.95002981     1.78760
O413        O  0.25913580  0.09239455  0.91933915    -0.93750
O414        O  0.37690472  0.05911243  0.97122637    -0.41560
O415        O  0.31560297  0.06470042  0.92203904    -0.78190
O416        O  0.31555626  0.02533776  0.96678143    -0.96880
O417        O  0.26028833  0.99688026  0.99705384    -0.90180
O418        O  0.26021753  0.03895616  0.94861086    -0.93020
C419        C  0.37368718  0.11788198  0.98672385     1.00730
C420        C  0.29883857  0.12618526  0.97534200     1.13660
C421        C  0.29377380  0.02432689  0.08989837     1.04440
O422        O  0.32895638  0.00136844  0.03874322    -0.95180
O423        O  0.29114536  0.46990183  0.00643134    -0.90920
O424        O  0.28196703  0.47612326  0.95770292    -0.84070
C425        C  0.28645058  0.46319734  0.98188173     1.11080
O426        O  0.21833730  0.03152335  0.03996084    -0.97150
Zr427      Zr  0.23855129  0.01826068  0.00560514     1.88940
O428        O  0.23648590  0.48156807  0.94962144    -0.73800
O429        O  0.25943160  0.45906299  0.06325063    -0.53060
O430        O  0.21233793  0.48084837  0.05897866    -0.97740
O431        O  0.20661302  0.02508900  0.98357255    -0.54960
O432        O  0.21211404  0.47849840  0.99427078    -0.74320
C433        C  0.21503979  0.47000095  0.97222636     0.98030
O434        O  0.30294655  0.01226882  0.89558373    -0.63140
O435        O  0.32878753  0.12837055  0.88804180    -0.57940
O436        O  0.27899010  0.03916242  0.88625951    -0.94620
O437        O  0.28823517  0.08093556  0.88107660    -0.93050
O438        O  0.37605787  0.11227214  0.89909648    -0.93410
O439        O  0.37039430  0.06431411  0.91044334    -0.92190
C440        C  0.28277578  0.06238441  0.87015670     1.16870
H441        H  0.33936354  0.11366214  0.95103809     0.32810
H442        H  0.32435265  0.01698085  0.96176662     0.43670
H443        H  0.24795084  0.03662723  0.93599015     0.37190
H444        H  0.26153997  0.01891739  0.05612290     0.33670
H445        H  0.39487205  0.07452962  0.95774052     0.25460
H446        H  0.26770239  0.45449184  0.07980814     0.31400
H447        H  0.19437771  0.47094105  0.05709439     0.37310
H448        H  0.39412283  0.11964657  0.90069237     0.31770
H449        H  0.31984146  0.13622344  0.87645595     0.30640
H450        H  0.26830468  0.10978330  0.89992590     0.32320
H451        H  0.18946800  0.01034954  0.99988776     0.31290
H452        H  0.35741253  0.05632422  0.89899574     0.35290
H453        H  0.31520604  0.03094844  0.87891097     0.28020
H454        H  0.30547992  0.09229314  0.06750559     0.32260
H455        H  0.19960150  0.01655524  0.04930445     0.35110
H456        H  0.33824634  0.14052535  0.89899501     0.27720
H457        H  0.31476023  0.00718310  0.90400760     0.40590
H458        H  0.33753234  0.01523532  0.04791920     0.30640
H459        H  0.37567917  0.05981670  0.99314322     0.38260
H460        H  0.20595675  0.02021404  0.96431946     0.30110
H461        H  0.24638049  0.46103711  0.07477917     0.30170
H462        H  0.27591014  0.07067720  0.07226549     0.30440
Zr463      Zr  0.30666585  0.32496840  0.01425005     2.17510
O464        O  0.29393214  0.33880884  0.05502900    -0.51920
O465        O  0.35231731  0.36120956  0.00235405    -0.75120
O466        O  0.30630708  0.30266157  0.06923880    -0.81910
O467        O  0.29129612  0.36801584  0.95054175    -0.83650
O468        O  0.29696521  0.26048152  0.07724299    -0.79280
O469        O  0.30000638  0.36189318  0.99943589    -0.90910
O470        O  0.37747605  0.36063030  0.96219755    -0.76870
O471        O  0.32994771  0.30500906  0.00498045    -0.86360
O472        O  0.32617598  0.34485529  0.95667592    -0.86050
O473        O  0.27394832  0.27700781  0.03464157    -0.72810
O474        O  0.27076829  0.31388773  0.99120644    -0.84950
Zr475      Zr  0.28184127  0.26519633  0.94313782     2.26420
Zr476      Zr  0.29754241  0.25715247  0.02428409     2.06270
Zr477      Zr  0.29062495  0.33332328  0.93358261     2.10050
Zr478      Zr  0.34870330  0.32433334  0.94712552     1.78760
O479        O  0.25434001  0.33688234  0.92244615    -0.93750
O480        O  0.37946274  0.31324588  0.96483135    -0.41560
O481        O  0.31372016  0.31328065  0.92269794    -0.78190
O482        O  0.31760216  0.27663261  0.96642659    -0.96880
O483        O  0.26216124  0.24563846  0.00064391    -0.90180
O484        O  0.25893461  0.28553107  0.95250245    -0.93020
C485        C  0.37430003  0.37054587  0.98234564     1.00730
C486        C  0.29513634  0.37441765  0.97541010     1.13660
C487        C  0.30074107  0.27915197  0.08734676     1.04440
O488        O  0.33443927  0.25583256  0.03750669    -0.95180
O489        O  0.29825559  0.22319664  0.00718304    -0.90920
O490        O  0.28523294  0.22580140  0.96101059    -0.84070
C491        C  0.29270305  0.21531840  0.98369649     1.11080
O492        O  0.21885655  0.27386351  0.05141910    -0.97150
Zr493      Zr  0.23937971  0.26602882  0.00989724     1.88940
O494        O  0.23637325  0.22818324  0.95541531    -0.73800
O495        O  0.26489994  0.21207200  0.06597593    -0.53060
O496        O  0.21526058  0.22564833  0.06084837    -0.97740
O497        O  0.20743135  0.27580269  0.99365060    -0.54960
O498        O  0.21107631  0.22939219  0.99466752    -0.74320
C499        C  0.21425055  0.21887605  0.97522129     0.98030
O500        O  0.30265925  0.26019473  0.89841343    -0.63140
O501        O  0.32372261  0.37590469  0.88800540    -0.57940
O502        O  0.27700539  0.28476167  0.89027035    -0.94620
O503        O  0.28499865  0.32609884  0.88374404    -0.93050
O504        O  0.37350250  0.36406597  0.89561924    -0.93410
O505        O  0.37053913  0.31753578  0.90575693    -0.92190
C506        C  0.27997800  0.30732966  0.87328445     1.16870
H507        H  0.33781144  0.36435848  0.94857987     0.32810
H508        H  0.32710165  0.26909778  0.96082572     0.43670
H509        H  0.24583300  0.28188121  0.94102145     0.37190
H510        H  0.26526729  0.26993035  0.05765101     0.33670
H511        H  0.39698692  0.32984854  0.95194549     0.25460
H512        H  0.27464179  0.20770182  0.08037466     0.31400
H513        H  0.19695680  0.21597390  0.06002268     0.37310
H514        H  0.39193875  0.37275141  0.89600357     0.31770
H515        H  0.31365281  0.38212649  0.87647244     0.30640
H516        H  0.26250387  0.35376413  0.90251470     0.32320
H517        H  0.19033432  0.25814959  0.00410260     0.31290
H518        H  0.35637847  0.30609638  0.89783859     0.35290
H519        H  0.31381150  0.27867464  0.88087463     0.28020
H520        H  0.30834754  0.34516312  0.06512494     0.32260
H521        H  0.19994496  0.25949203  0.05851676     0.35110
H522        H  0.33265510  0.38898299  0.89809725     0.27720
H523        H  0.31557283  0.25655742  0.90592118     0.40590
H524        H  0.34410865  0.27149541  0.04361533     0.30640
H525        H  0.37776545  0.31230311  0.98751476     0.38260
H526        H  0.21060804  0.27977599  0.96995539     0.30110
H527        H  0.25345095  0.21474921  0.07949263     0.30170
H528        H  0.27878222  0.32199667  0.07258749     0.30440
Zr529      Zr  0.99808387  0.08155723  0.59504194     2.17510
O530        O  0.48818629  0.10512932  0.54999643    -0.51920
O531        O  0.46094342  0.03520286  0.61047010    -0.75120
O532        O  0.00496543  0.07081677  0.54809826    -0.81910
O533        O  0.46466819  0.09524979  0.65623966    -0.83650
O534        O  0.04352749  0.07401930  0.54240194    -0.79280
O535        O  0.46321381  0.08751167  0.60948059    -0.90910
O536        O  0.46916517  0.00751174  0.64644263    -0.76870
O537        O  0.01774633  0.05651880  0.60648947    -0.86360
O538        O  0.48487779  0.05968338  0.65327682    -0.86050
O539        O  0.04435502  0.11481224  0.57059804    -0.72810
O540        O  0.01415706  0.11712392  0.61507523    -0.84950
Zr541      Zr  0.06678018  0.10158150  0.66143723     2.26420
Zr542      Zr  0.06377043  0.08916407  0.58314889     2.06270
Zr543      Zr  0.00132863  0.09500681  0.67337751     2.10050
Zr544      Zr  0.00486536  0.03482070  0.66437167     1.78760
O545        O  0.00621563  0.13483858  0.67983912    -0.93750
O546        O  0.01405942  0.00292303  0.65497767    -0.41560
O547        O  0.02071937  0.06941942  0.68508375    -0.78190
O548        O  0.05121361  0.06604272  0.64155883    -0.96880
O549        O  0.08035917  0.12425629  0.60353590    -0.90180
O550        O  0.04768363  0.12735655  0.65102939    -0.93020
C551        C  0.45576360  0.01173548  0.62821469     1.00730
C552        C  0.45472545  0.09227806  0.63248959     1.13660
C553        C  0.02257139  0.06871957  0.53388886     1.04440
O554        O  0.07283884  0.05845174  0.56986126    -0.95180
O555        O  0.10220900  0.09142998  0.59716893    -0.90920
O556        O  0.10347180  0.09903403  0.64365321    -0.84070
C557        C  0.11266939  0.09507239  0.62031775     1.11080
O558        O  0.04743115  0.17232043  0.55176931    -0.97150
Zr559      Zr  0.06057409  0.14922403  0.59280446     1.88940
O560        O  0.10214831  0.14741329  0.64982493    -0.73800
O561        O  0.09729662  0.12715264  0.53348758    -0.53060
O562        O  0.09525827  0.17552236  0.54101853    -0.97740
O563        O  0.05608121  0.18304261  0.60506116    -0.54960
O564        O  0.10018813  0.17610973  0.60648888    -0.74320
C565        C  0.11120406  0.17102052  0.62807065     0.98030
O566        O  0.07996441  0.08227633  0.70621706    -0.63140
O567        O  0.46268235  0.06452636  0.72091483    -0.57940
O568        O  0.05208828  0.09701701  0.71631571    -0.94620
O569        O  0.01140344  0.08925761  0.72584443    -0.93050
O570        O  0.46692145  0.00726362  0.71274675    -0.93410
O571        O  0.01310074  0.01138325  0.71147495    -0.92190
C572        C  0.03110783  0.09096734  0.73525451     1.16870
H573        H  0.46605479  0.04780562  0.66212966     0.32810
H574        H  0.05931515  0.05606731  0.64735724     0.43670
H575        H  0.05375435  0.14018939  0.66131271     0.37190
H576        H  0.04810063  0.12320917  0.54716591     0.33670
H577        H  0.99741802  0.98492824  0.66647818     0.25460
H578        H  0.10959766  0.12194394  0.52839442     0.31400
H579        H  0.10586313  0.19406114  0.54057674     0.37310
H580        H  0.45875382  0.98848027  0.71398427     0.31770
H581        H  0.45704164  0.07611200  0.72506251     0.30640
H582        H  0.49932288  0.12890274  0.70372180     0.32320
H583        H  0.07291038  0.20055074  0.59212493     0.31290
H584        H  0.03231215  0.02261109  0.70723749     0.35290
H585        H  0.07913473  0.06661613  0.70333872     0.28020
H586        H  0.47419108  0.09065809  0.54502787     0.32260
H587        H  0.06244513  0.19150177  0.54121277     0.35110
H588        H  0.44895096  0.05239920  0.71311896     0.27720
H589        H  0.09877798  0.09585179  0.70202618     0.40590
H590        H  0.06178447  0.04101860  0.58917851     0.30640
H591        H  0.01592954  0.00671349  0.63142721     0.38260
H592        H  0.05625176  0.17965066  0.62807507     0.30110
H593        H  0.08847440  0.12614567  0.51609013     0.30170
H594        H  0.00379255  0.11490107  0.53083967     0.30440
Zr595      Zr  0.00579758  0.32688408  0.59269057     2.17510
O596        O  0.00052215  0.35249532  0.54418258    -0.51920
O597        O  0.46776023  0.28228991  0.60546057    -0.75120
O598        O  0.01536786  0.31687924  0.54670221    -0.81910
O599        O  0.46897684  0.33810131  0.65218237    -0.83650
O600        O  0.05314939  0.31855090  0.54392909    -0.79280
O601        O  0.46974939  0.33161042  0.60467496    -0.90910
O602        O  0.46925708  0.25246433  0.64794895    -0.76870
O603        O  0.02371463  0.30025339  0.60666366    -0.86360
O604        O  0.48966540  0.30418666  0.65081915    -0.86050
O605        O  0.05228372  0.35847145  0.57114182    -0.72810
O606        O  0.02004348  0.36190211  0.61318874    -0.84950
Zr607      Zr  0.06916637  0.34377934  0.66521743     2.26420
Zr608      Zr  0.07019600  0.33162480  0.58713465     2.06270
Zr609      Zr  0.00499290  0.33896411  0.67154865     2.10050
Zr610      Zr  0.00766349  0.27764518  0.66444580     1.78760
O611        O  0.00963599  0.37921081  0.67630033    -0.93750
O612        O  0.01320981  0.24480273  0.65121008    -0.41560
O613        O  0.02278664  0.31210599  0.68583405    -0.78190
O614        O  0.05443628  0.30831297  0.64523765    -0.96880
O615        O  0.08516295  0.36657486  0.60734949    -0.90180
O616        O  0.05123400  0.37043642  0.65163300    -0.93020
C617        C  0.45842100  0.25837732  0.62660946     1.00730
C618        C  0.45998270  0.33536982  0.62777308     1.13660
C619        C  0.03322755  0.31461629  0.53366491     1.04440
O620        O  0.07768256  0.29764712  0.58161970    -0.95180
O621        O  0.10782834  0.33526320  0.60533764    -0.90920
O622        O  0.10871917  0.34549236  0.65013168    -0.84070
C623        C  0.11821941  0.34069226  0.62807619     1.11080
O624        O  0.05632363  0.41546181  0.54814123    -0.97150
Zr625      Zr  0.06654170  0.39246754  0.59337313     1.88940
O626        O  0.10409119  0.38955559  0.65633338    -0.73800
O627        O  0.10639575  0.36690400  0.53813911    -0.53060
O628        O  0.10441772  0.41885513  0.54501101    -0.97740
O629        O  0.06142784  0.42701530  0.60220865    -0.54960
O630        O  0.10298947  0.41805148  0.61168440    -0.74320
C631        C  0.11290759  0.41325845  0.63467565     0.98030
O632        O  0.07324844  0.31331678  0.70971199    -0.63140
O633        O  0.46498593  0.30976993  0.71732279    -0.57940
O634        O  0.05498482  0.34311679  0.71777382    -0.94620
O635        O  0.01352281  0.33342163  0.72474620    -0.93050
O636        O  0.47173192  0.25097419  0.71498699    -0.93410
O637        O  0.01554572  0.25181509  0.70976552    -0.92190
C638        C  0.03311105  0.33633271  0.73531197     1.16870
H639        H  0.47077231  0.29295396  0.65844092     0.32810
H640        H  0.06224487  0.29817561  0.65206909     0.43670
H641        H  0.05672626  0.38328271  0.66190626     0.37190
H642        H  0.05717535  0.36697702  0.54755479     0.33670
H643        H  0.99721738  0.22692848  0.66551928     0.25460
H644        H  0.11298810  0.35731632  0.53009179     0.31400
H645        H  0.11416274  0.43740369  0.54471303     0.37310
H646        H  0.46173534  0.23242596  0.71531624     0.31770
H647        H  0.45836200  0.32131271  0.71828851     0.30640
H648        H  0.50261339  0.37369016  0.70004604     0.32320
H649        H  0.07869963  0.44427555  0.59036383     0.31290
H650        H  0.03376047  0.25724521  0.70145826     0.35290
H651        H  0.05505345  0.29995228  0.72400401     0.28020
H652        H  0.48870520  0.33886797  0.53625602     0.32260
H653        H  0.07135755  0.43464661  0.53836535     0.35110
H654        H  0.45225677  0.29628473  0.70994618     0.27720
H655        H  0.07657769  0.30243926  0.69991940     0.40590
H656        H  0.06052464  0.28020186  0.59311236     0.30640
H657        H  0.01133292  0.24740500  0.62889049     0.38260
H658        H  0.05995290  0.42352379  0.62563345     0.30110
H659        H  0.09811955  0.37173587  0.52175984     0.30170
H660        H  0.01774725  0.36334607  0.52738793     0.30440
Zr661      Zr  0.24877724  0.07995225  0.59451333     2.17510
O662        O  0.23901515  0.10277305  0.54856100    -0.51920
O663        O  0.21209111  0.03373275  0.60909533    -0.75120
O664        O  0.25678550  0.06950142  0.54782440    -0.81910
O665        O  0.21396543  0.09281018  0.65505623    -0.83650
O666        O  0.29675118  0.07544037  0.54049107    -0.79280
O667        O  0.21318942  0.08498427  0.60857474    -0.90910
O668        O  0.21783334  0.00594177  0.64861858    -0.76870
O669        O  0.26891449  0.05542237  0.60615777    -0.86360
O670        O  0.23488482  0.05768130  0.65271385    -0.86050
O671        O  0.29494159  0.11371918  0.57065562    -0.72810
O672        O  0.26364275  0.11514432  0.61507527    -0.84950
Zr673      Zr  0.31581542  0.10010648  0.66255796     2.26420
Zr674      Zr  0.31495389  0.08866492  0.58345732     2.06270
Zr675      Zr  0.25023081  0.09258225  0.67343086     2.10050
Zr676      Zr  0.25525832  0.03327296  0.66411547     1.78760
O677        O  0.25460420  0.13184208  0.68108336    -0.93750
O678        O  0.26293153  0.00113047  0.65245439    -0.41560
O679        O  0.26986139  0.06729049  0.68582334    -0.78190
O680        O  0.30154458  0.06518315  0.64184015    -0.96880
O681        O  0.33002706  0.12316058  0.60465992    -0.90180
O682        O  0.29637963  0.12549375  0.65151434    -0.93020
C683        C  0.20525649  0.01017131  0.62898806     1.00730
C684        C  0.20419300  0.08974327  0.63123047     1.13660
C685        C  0.27542984  0.06926013  0.53263946     1.04440
O686        O  0.32398221  0.05681385  0.57366973    -0.95180
O687        O  0.35394886  0.09301865  0.59822399    -0.90920
O688        O  0.35413167  0.10022595  0.64529377    -0.84070
C689        C  0.36392269  0.09695775  0.62169248     1.11080
O690        O  0.29616204  0.17052709  0.55296448    -0.97150
Zr691      Zr  0.30997262  0.14775874  0.59333986     1.88940
O692        O  0.35168416  0.14564500  0.65056450    -0.73800
O693        O  0.34934725  0.12620270  0.53410183    -0.53060
O694        O  0.34440095  0.17434424  0.54128840    -0.97740
O695        O  0.30583204  0.18171473  0.60573987    -0.54960
O696        O  0.34968793  0.17423403  0.60706326    -0.74320
C697        C  0.36077461  0.16915263  0.62856224     0.98030
O698        O  0.32515703  0.07540375  0.70749136    -0.63140
O699        O  0.21040167  0.06239936  0.71945089    -0.57940
O700        O  0.30357308  0.10177857  0.71433189    -0.94620
O701        O  0.26047959  0.08578493  0.72597394    -0.93050
O702        O  0.21901257  0.00592766  0.71439537    -0.93410
O703        O  0.26497516  0.00951457  0.70915185    -0.92190
C704        C  0.28145969  0.09162513  0.73457051     1.16870
H705        H  0.21605581  0.04568258  0.66128982     0.32810
H706        H  0.31000090  0.05559091  0.64769025     0.43670
H707        H  0.30212516  0.13827497  0.66187803     0.37190
H708        H  0.29882815  0.12222507  0.54721430     0.33670
H709        H  0.24696789  0.98306407  0.66627419     0.25460
H710        H  0.35813263  0.11849357  0.52573492     0.31400
H711        H  0.35502507  0.19282729  0.54100473     0.37310
H712        H  0.21043895  0.98710252  0.71567293     0.31770
H713        H  0.20521923  0.07432315  0.72356239     0.30640
H714        H  0.24676318  0.12524220  0.70489109     0.32320
H715        H  0.32257511  0.19920886  0.59244633     0.31290
H716        H  0.28408825  0.02147996  0.70505537     0.35290
H717        H  0.30838720  0.06281923  0.72524888     0.28020
H718        H  0.22624386  0.08819644  0.54256262     0.32260
H719        H  0.31116772  0.18969260  0.54202282     0.35110
H720        H  0.19682953  0.05105669  0.71078715     0.27720
H721        H  0.32787511  0.06307117  0.70014622     0.40590
H722        H  0.30869540  0.03871657  0.58879099     0.30640
H723        H  0.26196076  0.00367666  0.62980109     0.38260
H724        H  0.30640273  0.17852409  0.62860077     0.30110
H725        H  0.34007026  0.12910179  0.51802994     0.30170
H726        H  0.25524680  0.11354668  0.53004973     0.30440
Zr727      Zr  0.25620257  0.32882033  0.59413065     2.17510
O728        O  0.25273940  0.35701557  0.54617373    -0.51920
O729        O  0.21774671  0.28445400  0.60664195    -0.75120
O730        O  0.26417590  0.31879207  0.54782650    -0.81910
O731        O  0.22208778  0.34311780  0.65204467    -0.83650
O732        O  0.30142842  0.31943319  0.54469124    -0.79280
O733        O  0.22060627  0.33385834  0.60655016    -0.90910
O734        O  0.21936780  0.25435801  0.64865240    -0.76870
O735        O  0.27341943  0.30149851  0.60761257    -0.86360
O736        O  0.24035049  0.30607372  0.65217143    -0.86050
O737        O  0.30268834  0.35983309  0.57212104    -0.72810
O738        O  0.27146309  0.36391517  0.61440622    -0.84950
Zr739      Zr  0.32082350  0.34497010  0.66583910     2.26420
Zr740      Zr  0.31982812  0.33230958  0.58756649     2.06270
Zr741      Zr  0.25668948  0.34094715  0.67258559     2.10050
Zr742      Zr  0.25790739  0.27907499  0.66538441     1.78760
O743        O  0.26255067  0.38095378  0.67957415    -0.93750
O744        O  0.26259003  0.24570556  0.65234827    -0.41560
O745        O  0.27422644  0.31362454  0.68665793    -0.78190
O746        O  0.30470421  0.30921700  0.64600240    -0.96880
O747        O  0.33620909  0.36749809  0.60780320    -0.90180
O748        O  0.30320712  0.37205168  0.65260229    -0.93020
C749        C  0.20845063  0.26041930  0.62748621     1.00730
C750        C  0.21219436  0.33956131  0.62841725     1.13660
C751        C  0.28139915  0.31589257  0.53468648     1.04440
O752        O  0.32649112  0.29828711  0.58031473    -0.95180
O753        O  0.35705390  0.33400311  0.60430978    -0.90920
O754        O  0.35715855  0.34080811  0.65159655    -0.84070
C755        C  0.36657661  0.33692207  0.62831316     1.11080
O756        O  0.31008567  0.41758341  0.54686459    -0.97150
Zr757      Zr  0.31798730  0.39391231  0.59425542     1.88940
O758        O  0.35626893  0.39119759  0.65530199    -0.73800
O759        O  0.35575148  0.36788071  0.53843148    -0.53060
O760        O  0.35717284  0.42034676  0.54760698    -0.97740
O761        O  0.31055502  0.42732466  0.60232712    -0.54960
O762        O  0.35347948  0.42021956  0.61315381    -0.74320
C763        C  0.36401379  0.41505234  0.63511770     0.98030
O764        O  0.33314116  0.32339479  0.70969755    -0.63140
O765        O  0.21585813  0.31187236  0.71710562    -0.57940
O766        O  0.30451445  0.34146248  0.71975697    -0.94620
O767        O  0.26367523  0.33330842  0.72630685    -0.93050
O768        O  0.22232884  0.25296646  0.71621328    -0.93410
O769        O  0.26647226  0.25292330  0.70935329    -0.92190
C770        C  0.28286512  0.33523975  0.73705408     1.16870
H771        H  0.22145791  0.29507718  0.65990889     0.32810
H772        H  0.31204764  0.29860000  0.65292329     0.43670
H773        H  0.30887467  0.38490603  0.66287086     0.37190
H774        H  0.30747843  0.36833980  0.54854531     0.33670
H775        H  0.24623213  0.22801741  0.66624346     0.25460
H776        H  0.36429684  0.35920140  0.53222439     0.31400
H777        H  0.36631195  0.43902975  0.54690022     0.37310
H778        H  0.21204176  0.23438681  0.71669483     0.31770
H779        H  0.21007792  0.32395199  0.71876240     0.30640
H780        H  0.25460547  0.37461703  0.70328996     0.32320
H781        H  0.32797010  0.44465543  0.59286244     0.31290
H782        H  0.27935955  0.26650238  0.71648685     0.35290
H783        H  0.34181446  0.33637062  0.72002827     0.28020
H784        H  0.23915383  0.34416517  0.53895244     0.32260
H785        H  0.32462051  0.43692681  0.53865501     0.35110
H786        H  0.20300284  0.29953629  0.70862327     0.27720
H787        H  0.31667744  0.30775784  0.72660531     0.40590
H788        H  0.30973550  0.28076661  0.59341521     0.30640
H789        H  0.26116860  0.24869577  0.62980292     0.38260
H790        H  0.30664801  0.42257649  0.62621738     0.30110
H791        H  0.34726561  0.37047031  0.52120377     0.30170
H792        H  0.26929338  0.36605706  0.52877193     0.30440
C793        C  0.43092491  0.21168575  0.62961294    -0.20890
C794        C  0.43335934  0.23606377  0.62656397    -0.07460
C795        C  0.41178243  0.23842395  0.62421428     0.13410
C796        C  0.38837329  0.21628728  0.62467603    -0.20940
C797        C  0.38592464  0.19185913  0.62786847    -0.07460
C798        C  0.40754871  0.18956767  0.63013248     0.13400
C799        C  0.40652002  0.16428645  0.63191824    -0.24290
H800        H  0.44756010  0.21006501  0.63123537     0.14690
H801        H  0.37171548  0.21786902  0.62309515     0.14720
C802        C  0.41289505  0.26373120  0.62252276    -0.24240
H803        H  0.42580748  0.16691231  0.63108316     0.04930
H804        H  0.40074590  0.15932253  0.61085121     0.08150
H805        H  0.39230851  0.14700506  0.65519860     0.08150
H806        H  0.42729460  0.28108707  0.59938579     0.08140
H807        H  0.41851422  0.26854769  0.64373431     0.08140
H808        H  0.39367240  0.26121576  0.62312815     0.04910
C809        C  0.18076127  0.46174311  0.63776835    -0.20890
C810        C  0.18134888  0.48584066  0.62990263    -0.07460
C811        C  0.15882076  0.48551149  0.62511937     0.13410
C812        C  0.13656794  0.46119093  0.62791064    -0.20940
C813        C  0.13610332  0.43719167  0.63554072    -0.07460
C814        C  0.15847140  0.43744013  0.64069378     0.13400
C815        C  0.15935299  0.41250617  0.64827968    -0.24290
H816        H  0.19800648  0.46195169  0.64143661     0.14690
H817        H  0.11932464  0.46089370  0.62401334     0.14720
C818        C  0.15766173  0.01029754  0.61797187    -0.24240
H819        H  0.17888451  0.41680922  0.64996526     0.04930
H820        H  0.15495341  0.40467710  0.62874394     0.08150
H821        H  0.14484569  0.39668856  0.67221153     0.08150
H822        H  0.17176598  0.02631798  0.59387084     0.08140
H823        H  0.16228904  0.01810132  0.63749320     0.08140
H824        H  0.13793380  0.50570786  0.61693789     0.04910
C825        C  0.41730604  0.32435252  0.65675963    -0.20890
C826        C  0.43624469  0.33585554  0.62690409    -0.07460
C827        C  0.43200857  0.34741201  0.59745588     0.13410
C828        C  0.40907153  0.34729526  0.59886585    -0.20940
C829        C  0.39024780  0.33609010  0.62881934    -0.07460
C830        C  0.39445045  0.32428351  0.65819547     0.13400
C831        C  0.37504643  0.31126067  0.69128006    -0.24290
H832        H  0.42038435  0.31521676  0.67927141     0.14690
H833        H  0.40597259  0.35638026  0.57635336     0.14720
C834        C  0.45170604  0.36054434  0.56449333    -0.24240
H835        H  0.38021637  0.30043151  0.71082722     0.04930
H836        H  0.35521674  0.29624049  0.69109127     0.08150
H837        H  0.37514616  0.32729337  0.69768201     0.08150
H838        H  0.45300057  0.34493306  0.55858629     0.08140
H839        H  0.47115594  0.37639785  0.56462242     0.08140
H840        H  0.44604782  0.37038365  0.54460703     0.04910
C841        C  0.15782224  0.34507742  0.59976535    -0.20890
C842        C  0.14284104  0.34155485  0.62866381    -0.07460
C843        C  0.15173542  0.33872674  0.65697191     0.13410
C844        C  0.17461382  0.33881323  0.65550685    -0.20940
C845        C  0.18909234  0.34145048  0.62692400    -0.07460
C846        C  0.18070782  0.34514492  0.59834894     0.13400
C847        C  0.19571250  0.34979599  0.56585079    -0.24290
H848        H  0.15158386  0.34783386  0.57786049     0.14690
H849        H  0.18081984  0.33597305  0.67742901     0.14720
C850        C  0.13706442  0.33427486  0.68955863    -0.24240
H851        H  0.18710222  0.35419805  0.54601104     0.04930
H852        H  0.19532187  0.33136505  0.56741273     0.08150
H853        H  0.21615344  0.36751771  0.55861394     0.08150
H854        H  0.11759101  0.31507284  0.69847719     0.08140
H855        H  0.13532247  0.35161085  0.68749237     0.08140
H856        H  0.14712653  0.33236415  0.70855372     0.04910
C857        C  0.41178697  0.44466423  0.62210479    -0.20890
C858        C  0.38709297  0.43865291  0.63614352    -0.07460
C859        C  0.38494806  0.45713635  0.64660893     0.13410
C860        C  0.40777488  0.48145733  0.64272738    -0.20940
C861        C  0.43248371  0.48747873  0.62864912    -0.07460
C862        C  0.43460801  0.46898004  0.61816064     0.13400
C863        C  0.46087046  0.47527013  0.60191009    -0.24290
H864        H  0.41315288  0.43062560  0.61338772     0.14690
H865        H  0.40639227  0.49558879  0.65121700     0.14720
C866        C  0.35862002  0.45099100  0.66221733    -0.24240
H867        H  0.45885372  0.45910579  0.59395230     0.04930
H868        H  0.47279386  0.47701804  0.61921813     0.08150
H869        H  0.47133963  0.49467649  0.57995103     0.08150
H870        H  0.34799567  0.43168647  0.68432382     0.08140
H871        H  0.34692173  0.44903839  0.64463399     0.08140
H872        H  0.36051890  0.46730245  0.66976562     0.04910
C873        C  0.18124649  0.21388725  0.62970768    -0.20890
C874        C  0.18344310  0.23807543  0.62716282    -0.07460
C875        C  0.16169833  0.24017397  0.62503152     0.13410
C876        C  0.13842673  0.21804923  0.62508955    -0.20940
C877        C  0.13622234  0.19380482  0.62778272    -0.07460
C878        C  0.15798345  0.19175155  0.62998322     0.13400
C879        C  0.15712195  0.16658070  0.63178179    -0.24290
H880        H  0.19796102  0.21239505  0.63123133     0.14690
H881        H  0.12168204  0.21948596  0.62361054     0.14720
C882        C  0.16251378  0.26520270  0.62395127    -0.24240
H883        H  0.17641295  0.16924838  0.63112427     0.04930
H884        H  0.15142077  0.16154082  0.61072335     0.08150
H885        H  0.14285890  0.14939116  0.65507576     0.08150
H886        H  0.17694071  0.28275735  0.60101165     0.08140
H887        H  0.16797315  0.26971904  0.64537699     0.08140
H888        H  0.14324083  0.26256384  0.62457507     0.04910
C889        C  0.43137420  0.10847669  0.59979668    -0.20890
C890        C  0.43198771  0.09464655  0.63067844    -0.07460
C891        C  0.41021361  0.08189672  0.65826216     0.13410
C892        C  0.38847045  0.08308182  0.65420395    -0.20940
C893        C  0.38766079  0.09652461  0.62331589    -0.07460
C894        C  0.40957818  0.10971571  0.59578001     0.13400
C895        C  0.41046145  0.12576216  0.56242016    -0.24290
H896        H  0.44812281  0.11840615  0.57861724     0.14690
H897        H  0.37169584  0.07298204  0.67538645     0.14720
C898        C  0.40920873  0.06606929  0.69181191    -0.24240
H899        H  0.42966448  0.13594105  0.54409417     0.04930
H900        H  0.40724597  0.14167768  0.56367691     0.08150
H901        H  0.39515042  0.11210755  0.55364650     0.08150
H902        H  0.42461282  0.07990280  0.70029174     0.08140
H903        H  0.41210575  0.04987003  0.69100624     0.08140
H904        H  0.39009041  0.05623183  0.71013060     0.04910
C905        C  0.16817230  0.08372319  0.60593472    -0.20890
C906        C  0.18097802  0.09166634  0.62898143    -0.07460
C907        C  0.17148004  0.10149772  0.64821858     0.13410
C908        C  0.14956834  0.10246771  0.64427938    -0.20940
C909        C  0.13664708  0.09437724  0.62138565    -0.07460
C910        C  0.14642855  0.08499976  0.60175126     0.13400
C911        C  0.13402014  0.07563774  0.57674851    -0.24290
H912        H  0.17506048  0.07612855  0.59097559     0.14690
H913        H  0.14239912  0.10954032  0.65969454     0.14720
C914        C  0.18414209  0.11133941  0.67284467    -0.24240
H915        H  0.14418006  0.06871009  0.56408381     0.04930
H916        H  0.13496556  0.09259054  0.55768010     0.08150
H917        H  0.11339531  0.05823892  0.58901790     0.08150
H918        H  0.20499805  0.12816934  0.66053526     0.08140
H919        H  0.18257784  0.09436510  0.69265032     0.08140
H920        H  0.17454888  0.11919506  0.68459900     0.04910
C921        C  0.27231923  0.30157028  0.79119755    -0.20890
C922        C  0.27945701  0.32782235  0.77226144    -0.07460
C923        C  0.28548177  0.34678278  0.78648935     0.13410
C924        C  0.28470274  0.33914945  0.81958851    -0.20940
C925        C  0.27831283  0.31294587  0.83891542    -0.07460
C926        C  0.27155153  0.29370852  0.82431460     0.13400
C927        C  0.26370363  0.26497168  0.84270992    -0.24290
H928        H  0.26789898  0.28728452  0.77963572     0.14690
H929        H  0.28980336  0.35417985  0.83003881     0.14720
C930        C  0.29332886  0.37521235  0.76649780    -0.24240
H931        H  0.25810970  0.25289688  0.82739514     0.04930
H932        H  0.24653004  0.25454527  0.86446120     0.08150
H933        H  0.28035538  0.26502469  0.85021052     0.08150
H934        H  0.27725345  0.37449177  0.75654365     0.08140
H935        H  0.31122865  0.38536482  0.74586250     0.08140
H936        H  0.29750817  0.38763590  0.78136587     0.04910
C937        C  0.27470174  0.40124306  0.96497408    -0.20890
C938        C  0.29334028  0.39740422  0.97700439    -0.07460
C939        C  0.30952888  0.41534988  0.99072899     0.13410
C940        C  0.30633581  0.43604494  0.99243908    -0.20940
C941        C  0.28767032  0.43985828  0.98052003    -0.07460
C942        C  0.27158984  0.42206353  0.96657257     0.13400
C943        C  0.25049783  0.42420832  0.95422040    -0.24290
H944        H  0.26216742  0.38756411  0.95462898     0.14690
H945        H  0.31899349  0.44980009  0.00262045     0.14720
C946        C  0.33103582  0.41371259  0.00247356    -0.24240
H947        H  0.23856454  0.40741521  0.94656820     0.04930
H948        H  0.25937148  0.44351122  0.93254536     0.08150
H949        H  0.23711604  0.42326093  0.97387043     0.08150
H950        H  0.34411278  0.41450910  0.98265980     0.08140
H951        H  0.32258598  0.39469175  0.02437524     0.08140
H952        H  0.34320756  0.43082033  0.00953323     0.04910
C953        C  0.27502195  0.17237744  0.97516880    -0.20890
C954        C  0.29500904  0.19266979  0.98225405    -0.07460
C955        C  0.31699430  0.19141386  0.98615109     0.13410
C956        C  0.31787861  0.16959199  0.98363371    -0.20940
C957        C  0.29753267  0.14921012  0.97684422    -0.07460
C958        C  0.27570494  0.15054727  0.97292666     0.13400
C959        C  0.25259259  0.12850274  0.96753162    -0.24290
H960        H  0.25862866  0.17353689  0.97148183     0.14690
H961        H  0.33467003  0.16858553  0.98659046     0.14720
C962        C  0.34003879  0.21354859  0.99147024    -0.24240
H963        H  0.23657394  0.13198858  0.96691195     0.04930
H964        H  0.24466808  0.10855538  0.98769104     0.08150
H965        H  0.25863819  0.12788195  0.94377500     0.08150
H966        H  0.33398986  0.21428021  0.01517134     0.08140
H967        H  0.34788240  0.23343322  0.97123309     0.08140
H968        H  0.35609756  0.21010581  0.99209100     0.04910
C969        C  0.30391355  0.08951053  0.77781502    -0.20890
C970        C  0.28073718  0.08508297  0.76997944    -0.07460
C971        C  0.25789995  0.07294947  0.79621020     0.13410
C972        C  0.25892498  0.06524056  0.82881662    -0.20940
C973        C  0.28194250  0.06909068  0.83596875    -0.07460
C974        C  0.30475062  0.08171393  0.81019802     0.13400
C975        C  0.33016162  0.08715239  0.81681843    -0.24290
H976        H  0.32171545  0.09885260  0.75851917     0.14690
H977        H  0.24166851  0.05614929  0.84891540     0.14720
C978        C  0.23239414  0.06799428  0.79052162    -0.24240
H979        H  0.34630679  0.09761255  0.79382599     0.04930
H980        H  0.32775575  0.06770393  0.83104376     0.08150
H981        H  0.33598660  0.10021456  0.83092540     0.08150
H982        H  0.22480185  0.05321523  0.77880864     0.08140
H983        H  0.23530935  0.08741629  0.77478191     0.08140
H984        H  0.21717033  0.05939046  0.81381448     0.04910
C985        C  0.44243355  0.17097025  0.98322487    -0.20890
C986        C  0.44133474  0.19407566  0.97526437    -0.07460
C987        C  0.41770027  0.19171150  0.97220523     0.13410
C988        C  0.39567985  0.16625654  0.97742810    -0.20940
C989        C  0.39675709  0.14315838  0.98533020    -0.07460
C990        C  0.42040083  0.14550058  0.98831893     0.13400
C991        C  0.42220945  0.12108437  0.99781135    -0.24290
H992        H  0.46047213  0.17277788  0.98612653     0.14690
H993        H  0.37766806  0.16448899  0.97444355     0.14720
C994        C  0.41588204  0.21612696  0.96234559    -0.24240
H995        H  0.44176914  0.12632400  0.00054405     0.04930
H996        H  0.41890105  0.11265455  0.97872791     0.08150
H997        H  0.40726342  0.10532110  0.02155371     0.08150
H998        H  0.43096235  0.23186925  0.93868385     0.08140
H999        H  0.41893220  0.22456021  0.98142016     0.08140
H1000       H  0.39640034  0.21088331  0.95928270     0.04910
C1001       C  0.15694898  0.41940828  0.95297724    -0.20890
C1002       C  0.14692992  0.39550022  0.98075237    -0.07460
C1003       C  0.15971914  0.39603561  0.00529296     0.13410
C1004       C  0.18211998  0.42069071  0.00169185    -0.20940
C1005       C  0.19208655  0.44461511  0.97393833    -0.07460
C1006       C  0.17933836  0.44403810  0.94935166     0.13400
C1007       C  0.18885768  0.46949708  0.91988056    -0.24290
H1008       H  0.14701589  0.41881062  0.93418701     0.14690
H1009       H  0.19204674  0.42130774  0.02048568     0.14720
C1010       C  0.15016961  0.37054564  0.03469574    -0.24240
H1011       H  0.17620405  0.46555118  0.90344097     0.04930
H1012       H  0.20904788  0.47786805  0.90562011     0.08150
H1013       H  0.18879995  0.48485467  0.92792612     0.08150
H1014       H  0.15026421  0.35523647  0.02657433     0.08140
H1015       H  0.12995245  0.36215111  0.04889412     0.08140
H1016       H  0.16278975  0.37445268  0.05117849     0.04910
C1017       C  0.02140901  0.33198332  0.82281659    -0.20890
C1018       C  0.02912558  0.31431829  0.83717322    -0.07460
C1019       C  0.03681629  0.30335697  0.81787211     0.13410
C1020       C  0.03691325  0.31058731  0.78523418    -0.20940
C1021       C  0.03002098  0.32870647  0.77068638    -0.07460
C1022       C  0.02168716  0.33924300  0.78973439     0.13400
C1023       C  0.01406621  0.35876204  0.77501458    -0.24290
H1024       H  0.01543352  0.34040620  0.83741761     0.14690
H1025       H  0.04291191  0.30224067  0.77068729     0.14720
C1026       C  0.04663667  0.28541959  0.83026728    -0.24240
H1027       H  0.00882494  0.36569821  0.79313639     0.04930
H1028       H  0.99683665  0.34874532  0.76626948     0.08150
H1029       H  0.03065206  0.37687739  0.75410380     0.08150
H1030       H  0.03103032  0.26613789  0.85071934     0.08140
H1031       H  0.06408706  0.29656013  0.83799975     0.08140
H1032       H  0.05274646  0.27987140  0.81104760     0.04910
C1033       C  0.39949494  0.42009549  0.96481046    -0.20890
C1034       C  0.39745356  0.39562863  0.98047789    -0.07460
C1035       C  0.41830299  0.39590461  0.99131767     0.13410
C1036       C  0.44070595  0.42084366  0.98671915    -0.20940
C1037       C  0.44274287  0.44532070  0.97103553    -0.07460
C1038       C  0.42195713  0.44502751  0.95999958     0.13400
C1039       C  0.42362456  0.47098147  0.94289092    -0.24290
H1040       H  0.38364126  0.41968422  0.95577979     0.14690
H1041       H  0.45638488  0.42122187  0.99616927     0.14720
C1042       C  0.41666962  0.36993963  0.00821620    -0.24240
H1043       H  0.40584042  0.46709519  0.93522145     0.04930
H1044       H  0.44083841  0.48433756  0.92069562     0.08150
H1045       H  0.42566882  0.48165377  0.95956967     0.08150
H1046       H  0.41448523  0.35930334  0.99145908     0.08140
H1047       H  0.39954278  0.35655517  0.03051495     0.08140
H1048       H  0.43453034  0.37381354  0.01567418     0.04910
C1049       C  0.16707610  0.19231417  0.97840334    -0.20890
C1050       C  0.19064556  0.19369932  0.97699371    -0.07460
C1051       C  0.19061497  0.17021517  0.98042869     0.13170
C1052       C  0.16734132  0.14616993  0.98473723    -0.20940
C1053       C  0.14387512  0.14480071  0.98591766    -0.07460
C1054       C  0.14375520  0.16825210  0.98239141     0.13400
C1055       C  0.11938116  0.16828030  0.98167976    -0.24290
H1056       H  0.16699376  0.21024158  0.97603153     0.14690
H1057       H  0.16745417  0.12826059  0.98703988     0.14720
C1058       C  0.21490120  0.17011955  0.98036413    -0.24240
H1059       H  0.12297467  0.18855838  0.97752112     0.04930
H1060       H  0.10422392  0.15362853  0.00548294     0.08150
H1061       H  0.11205784  0.16247114  0.96171602     0.08150
H1062       H  0.22294835  0.17649705  0.99967157     0.08140
H1063       H  0.22954672  0.18422436  0.95596108     0.08140
H1064       H  0.21096982  0.14963168  0.98518587     0.04910
C1065       C  0.05667301  0.43588965  0.99383866    -0.20890
C1066       C  0.03994487  0.44142089  0.97881437    -0.07460
C1067       C  0.02624038  0.42562000  0.96142598     0.13410
C1068       C  0.02917930  0.40464169  0.96040074    -0.20940
C1069       C  0.04565911  0.39894294  0.97575568    -0.07460
C1070       C  0.05997262  0.41523676  0.99227898     0.13400
C1071       C  0.07958705  0.41189275  0.00732772    -0.24290
H1072       H  0.06774030  0.44822372  0.00645835     0.14690
H1073       H  0.01824473  0.39236197  0.94764834     0.14720
C1074       C  0.00801808  0.43012055  0.94428611    -0.24240
H1075       H  0.09064726  0.42800818  0.01635049     0.04930
H1076       H  0.09398616  0.41305048  0.98882151     0.08150
H1077       H  0.06945471  0.39219612  0.02863375     0.08150
H1078       H  0.01922643  0.45023014  0.92344421     0.08140
H1079       H  0.49302472  0.42891593  0.96179616     0.08140
H1080       H  0.99762241  0.41461631  0.93416630     0.04910
C1081       C  0.02964993  0.15533427  0.95904036    -0.20890
C1082       C  0.03643740  0.14241841  0.98428191    -0.07460
C1083       C  0.04024510  0.15140395  0.01040975     0.13410
C1084       C  0.03914073  0.17382354  0.00907380    -0.20940
C1085       C  0.03337692  0.18740023  0.98321124    -0.07460
C1086       C  0.02763351  0.17718536  0.95828190     0.13400
C1087       C  0.01923642  0.18870750  0.93057980    -0.24290
H1088       H  0.02582346  0.14828803  0.93944563     0.14690
H1089       H  0.04282417  0.18075474  0.02877552     0.14720
C1090       C  0.04507947  0.13766872  0.04037893    -0.24240
H1091       H  0.01455167  0.17726295  0.91452248     0.04930
H1092       H  0.03522717  0.20998001  0.91489664     0.08150
H1093       H  0.00129839  0.18759055  0.94053630     0.08150
H1094       H  0.02788375  0.11649139  0.05348859     0.08140
H1095       H  0.06313728  0.13823616  0.03339894     0.08140
H1096       H  0.04769854  0.14770683  0.05789824     0.04910
C1097       C  0.01854480  0.08216162  0.82515561    -0.20890
C1098       C  0.03021779  0.06794834  0.83682544    -0.07460
C1099       C  0.04154939  0.06132470  0.81486315     0.13410
C1100       C  0.04080723  0.06882100  0.78247337    -0.20940
C1101       C  0.02949193  0.08322231  0.77060194    -0.07460
C1102       C  0.01789329  0.08974372  0.79236418     0.13400
C1103       C  0.00562324  0.10533582  0.78102619    -0.24290
H1104       H  0.00994205  0.08743251  0.84177796     0.14690
H1105       H  0.04933209  0.06334213  0.76608734     0.14720
C1106       C  0.05574696  0.04759779  0.82449305    -0.24240
H1107       H  0.99853314  0.10970767  0.80089277     0.04930
H1108       H  0.98858942  0.09334754  0.77305873     0.08150
H1109       H  0.02022933  0.12498662  0.76030892     0.08150
H1110       H  0.04186388  0.02682192  0.84349750     0.08140
H1111       H  0.07184846  0.05996284  0.83342158     0.08140
H1112       H  0.06466794  0.04553586  0.80353093     0.04910
C1113       C  0.25304817  0.29119861  0.46968730    -0.20890
C1114       C  0.27428099  0.29334160  0.45115332    -0.07460
C1115       C  0.29789457  0.30319318  0.46021633     0.13410
C1116       C  0.29930763  0.31031061  0.48731958    -0.20940
C1117       C  0.27804434  0.30802985  0.50604531    -0.07460
C1118       C  0.25441855  0.29821479  0.49692904     0.13400
C1119       C  0.23017224  0.29448410  0.51558775    -0.24290
H1120       H  0.23496312  0.28360378  0.46305098     0.14690
H1121       H  0.31745808  0.31792526  0.49379155     0.14720
C1122       C  0.32219573  0.30710395  0.44138564    -0.24240
H1123       H  0.21346571  0.28538798  0.50562409     0.04930
H1124       H  0.23408586  0.31444959  0.51367534     0.08150
H1125       H  0.22390704  0.28067466  0.54162547     0.08150
H1126       H  0.32812850  0.32080291  0.41539469     0.08140
H1127       H  0.31860156  0.28722113  0.44326622     0.08140
H1128       H  0.33900799  0.31651083  0.45107267     0.04910
C1129       C  0.30424203  0.28399023  0.16937989    -0.20890
C1130       C  0.27899634  0.26215348  0.18929013    -0.07460
C1131       C  0.26185996  0.24468126  0.17618426     0.13410
C1132       C  0.27030574  0.24977408  0.14308031    -0.20940
C1133       C  0.29522001  0.27227757  0.12281343    -0.07460
C1134       C  0.31247055  0.28953135  0.13613509     0.13400
C1135       C  0.33958560  0.31355291  0.11554157    -0.24290
H1136       H  0.31738798  0.29716052  0.17978513     0.14690
H1137       H  0.25698823  0.23681127  0.13260124     0.14720
C1138       C  0.23488090  0.22069912  0.19707894    -0.24240
H1139       H  0.35086937  0.32394072  0.13041519     0.04930
H1140       H  0.33847207  0.32865515  0.09608291     0.08150
H1141       H  0.35047969  0.30667895  0.10414613     0.08150
H1142       H  0.22331372  0.22778202  0.20642269     0.08140
H1143       H  0.23635691  0.20700141  0.21810096     0.08140
H1144       H  0.22418546  0.20886351  0.18303731     0.04910
C1145       C  0.24737908  0.03692452  0.50916357    -0.20890
C1146       C  0.27144935  0.06041215  0.50482503    -0.07460
C1147       C  0.29080155  0.07490366  0.47412409     0.13410
C1148       C  0.28593119  0.06511801  0.44910872    -0.20940
C1149       C  0.26205106  0.04141681  0.45364435    -0.07460
C1150       C  0.24250735  0.02719649  0.48408301     0.13400
C1151       C  0.21691608  0.50121667  0.49062627    -0.24290
H1152       H  0.23246054  0.02578462  0.53261058     0.14690
H1153       H  0.30087306  0.07611903  0.42570408     0.14720
C1154       C  0.31625964  0.10116335  0.46720714    -0.24240
H1155       H  0.20428468  0.49207864  0.51611732     0.04930
H1156       H  0.22063951  0.48622383  0.48688277     0.08150
H1157       H  0.20607079  0.50529972  0.47378356     0.08150
H1158       H  0.32775852  0.09745320  0.48323509     0.08140
H1159       H  0.31227133  0.11580334  0.47161854     0.08140
H1160       H  0.32845938  0.11060461  0.44141138     0.04910
C1161       C  0.26344727  0.37042706  0.35635806    -0.20890
C1162       C  0.26233973  0.36455987  0.32834259    -0.07460
C1163       C  0.25778461  0.37923821  0.30181808     0.13410
C1164       C  0.25491453  0.39995542  0.30375149    -0.20940
C1165       C  0.25608843  0.40588451  0.33176725    -0.07460
C1166       C  0.26058029  0.39111472  0.35832110     0.13400
C1167       C  0.26336848  0.39777377  0.38816030    -0.24290
H1168       H  0.26683825  0.35891562  0.37663622     0.14690
H1169       H  0.25153653  0.41145789  0.28345450     0.14720
C1170       C  0.25508784  0.37249171  0.27203921    -0.24240
H1171       H  0.26812204  0.38504245  0.40577656     0.04930
H1172       H  0.24476665  0.39408328  0.40103509     0.08150
H1173       H  0.27937131  0.41938665  0.38074781     0.08150
H1174       H  0.23896969  0.35092109  0.27947440     0.08140
H1175       H  0.27363829  0.37589444  0.25949499     0.08140
H1176       H  0.25057216  0.38533826  0.25419356     0.04910
C1177       C  0.28053362  0.13427267  0.32668646    -0.20890
C1178       C  0.25644898  0.11098533  0.33092838    -0.07460
C1179       C  0.23387566  0.11185528  0.33220994     0.13410
C1180       C  0.23600835  0.13601352  0.32969958    -0.20940
C1181       C  0.26010970  0.15924038  0.32556325    -0.07460
C1182       C  0.28267893  0.15840454  0.32406956     0.13400
C1183       C  0.30880593  0.18243318  0.32105820    -0.24290
H1184       H  0.29778237  0.13347441  0.32573080     0.14690
H1185       H  0.21877376  0.13684877  0.33089015     0.14720
C1186       C  0.20779108  0.08785074  0.33509588    -0.24240
H1187       H  0.32390470  0.17757082  0.32206819     0.04930
H1188       H  0.30690110  0.18879406  0.34144878     0.08150
H1189       H  0.31592312  0.19960230  0.29729259     0.08150
H1190       H  0.20052705  0.07070845  0.35894080     0.08140
H1191       H  0.20981412  0.08142285  0.31480622     0.08140
H1192       H  0.19275623  0.09279180  0.33379048     0.04910
C1193       C  0.25748221  0.48837347  0.18163551    -0.20890
C1194       C  0.27218478  0.00885635  0.19244473    -0.07460
C1195       C  0.29472042  0.03369141  0.16988857     0.13410
C1196       C  0.30205288  0.03734901  0.13717713    -0.20940
C1197       C  0.28734306  0.01705233  0.12594790    -0.07460
C1198       C  0.26465001  0.49215401  0.14866603     0.13400
C1199       C  0.24721416  0.46989252  0.13826856    -0.24290
H1200       H  0.24024269  0.46938281  0.19907302     0.14690
H1201       H  0.31912250  0.05666157  0.12001217     0.14720
C1202       C  0.31107835  0.05719336  0.17915249    -0.24240
H1203       H  0.22981250  0.45248918  0.15887689     0.04930
H1204       H  0.25822215  0.46212870  0.12938829     0.08150
H1205       H  0.24010896  0.47775839  0.11863145     0.08150
H1206       H  0.33135869  0.06206460  0.17508801     0.08140
H1207       H  0.30337307  0.05314870  0.20499892     0.08140
H1208       H  0.31165649  0.07527002  0.16355421     0.04910
C1209       C  0.04568399  0.30270413  0.45620843    -0.20890
C1210       C  0.02055168  0.29041693  0.45191104    -0.07460
C1211       C  0.49976937  0.28619784  0.47471171     0.13410
C1212       C  0.00473162  0.29424511  0.50090025    -0.20940
C1213       C  0.02986450  0.30643210  0.50530901    -0.07460
C1214       C  0.05066469  0.31065315  0.48243075     0.13400
C1215       C  0.07832396  0.32390296  0.48470607    -0.24290
H1216       H  0.06180975  0.30629420  0.43869565     0.14690
H1217       H  0.48856899  0.29064212  0.51835391     0.14720
C1218       C  0.47213862  0.27253868  0.47250626    -0.24240
H1219       H  0.09205239  0.32655719  0.46377325     0.04930
H1220       H  0.07911483  0.31108044  0.50736205     0.08150
H1221       H  0.08541124  0.34434032  0.48453202     0.08150
H1222       H  0.46543601  0.25219799  0.47260769     0.08140
H1223       H  0.47119160  0.28518498  0.44988981     0.08140
H1224       H  0.45827798  0.26966493  0.49348431     0.04910
C1225       C  0.39598754  0.25376855  0.35724349    -0.20890
C1226       C  0.41169278  0.26003893  0.32699106    -0.07460
C1227       C  0.40284407  0.26430048  0.29891921     0.13410
C1228       C  0.37900089  0.26240024  0.30201308    -0.20940
C1229       C  0.36359800  0.25666653  0.33210827    -0.07460
C1230       C  0.37220693  0.25204797  0.36026370     0.13400
C1231       C  0.35643834  0.24473076  0.39383105    -0.24290
H1232       H  0.40232125  0.25008587  0.37892586     0.14690
H1233       H  0.37265449  0.26611990  0.28035051     0.14720
C1234       C  0.41851153  0.27182032  0.26521586    -0.24240
H1235       H  0.36527433  0.23978080  0.41311874     0.04930
H1236       H  0.33635909  0.22663903  0.40006282     0.08150
H1237       H  0.35558361  0.26208475  0.39457935     0.08150
H1238       H  0.42032128  0.25496269  0.26457240     0.08140
H1239       H  0.43811965  0.29064457  0.25848663     0.08140
H1240       H  0.40907343  0.27577318  0.24620411     0.04910
C1241       C  0.11761982  0.24478439  0.35790193    -0.20890
C1242       C  0.11609272  0.26073024  0.32952169    -0.07460
C1243       C  0.13822114  0.27773978  0.30143138     0.13410
C1244       C  0.16105739  0.27799784  0.30231720    -0.20940
C1245       C  0.16254398  0.26197746  0.33060363    -0.07460
C1246       C  0.14052647  0.24509332  0.35877887     0.13400
C1247       C  0.14074024  0.22672398  0.38942300    -0.24290
H1248       H  0.10065535  0.23175307  0.37938281     0.14690
H1249       H  0.17802859  0.29102768  0.28083142     0.14720
C1250       C  0.13827566  0.29627039  0.27072026    -0.24240
H1251       H  0.12135640  0.21372681  0.40829006     0.04930
H1252       H  0.15521963  0.23904308  0.40015514     0.08150
H1253       H  0.14581221  0.21321760  0.38358079     0.08150
H1254       H  0.13229270  0.30915229  0.27659363     0.08140
H1255       H  0.12473105  0.28397707  0.25919336     0.08140
H1256       H  0.15796213  0.30991717  0.25244858     0.04910
C1257       C  0.05282771  0.29321750  0.13228958    -0.20890
C1258       C  0.04509295  0.27132896  0.12260400    -0.07460
C1259       C  0.03095945  0.24450407  0.14730685     0.13410
C1260       C  0.02420203  0.24052882  0.18030337    -0.20940
C1261       C  0.03049334  0.26237558  0.18911147    -0.07460
C1262       C  0.04543710  0.28903989  0.16507648     0.13400
C1263       C  0.05377999  0.31316603  0.17404602    -0.24290
H1264       H  0.06412939  0.31386077  0.11402617     0.14690
H1265       H  0.01327988  0.22019430  0.19933348     0.14720
C1266       C  0.02188240  0.21976083  0.13961400    -0.24240
H1267       H  0.06582648  0.33266017  0.15222299     0.04930
H1268       H  0.06560233  0.31338123  0.19133972     0.08150
H1269       H  0.03627484  0.31201111  0.18575964     0.08150
H1270       H  0.03893159  0.22114316  0.12606265     0.08140
H1271       H  0.00797072  0.21802030  0.12504249     0.08140
H1272       H  0.01147129  0.20077250  0.16213694     0.04910
C1273       C  0.03426580  0.05025971  0.49684570    -0.20890
C1274       C  0.01847851  0.05885174  0.50646021    -0.07460
C1275       C  0.49940147  0.05728170  0.48996162     0.13410
C1276       C  0.49712158  0.04767651  0.46460933    -0.20940
C1277       C  0.01314299  0.03932216  0.45479910    -0.07460
C1278       C  0.03197841  0.04058210  0.47170055     0.13400
C1279       C  0.04997291  0.03173114  0.46407772    -0.24290
H1280       H  0.04866254  0.05091274  0.50935184     0.14690
H1281       H  0.48266576  0.04690577  0.45215696     0.14720
C1282       C  0.48149772  0.06603971  0.49814333    -0.24240
H1283       H  0.06257830  0.03334083  0.48058265     0.04930
H1284       H  0.06327368  0.04491087  0.43874892     0.08150
H1285       H  0.03830066  0.01015384  0.46725398     0.08150
H1286       H  0.49331477  0.08763818  0.49481573     0.08140
H1287       H  0.46858553  0.05299237  0.52370587     0.08140
H1288       H  0.46858800  0.06425257  0.48202072     0.04910
C1289       C  0.00428581  0.38695915  0.36005318    -0.20890
C1290       C  0.00464281  0.40399445  0.33097929    -0.07460
C1291       C  0.00809650  0.39988988  0.30180657     0.13410
C1292       C  0.01153057  0.37900234  0.30244830    -0.20940
C1293       C  0.01132086  0.36209116  0.33149302    -0.07460
C1294       C  0.00767437  0.36606066  0.36068895     0.13400
C1295       C  0.00822163  0.34896454  0.39225546    -0.24290
H1296       H  0.00195266  0.39044720  0.38221612     0.14690
H1297       H  0.01389838  0.37548824  0.28031157     0.14720
C1298       C  0.00726034  0.41675895  0.27028640    -0.24240
H1299       H  0.00668243  0.35602429  0.41206192     0.04930
H1300       H  0.02686910  0.34999919  0.38846409     0.08150
H1301       H  0.49150896  0.32757905  0.40074374     0.08150
H1302       H  0.02404964  0.43818475  0.26125634     0.08140
H1303       H  0.48864377  0.41576732  0.27436923     0.08140
H1304       H  0.00839922  0.40937095  0.25069616     0.04910
C1305       C  0.03156368  0.13290195  0.32961412    -0.20890
C1306       C  0.00778398  0.11026253  0.33173420    -0.07460
C1307       C  0.48571231  0.11181381  0.33103198     0.13410
C1308       C  0.48792417  0.13594523  0.32855824    -0.20940
C1309       C  0.01163191  0.15849813  0.32664931    -0.07460
C1310       C  0.03375453  0.15702928  0.32729277     0.13400
C1311       C  0.05931429  0.18032835  0.32684403    -0.24290
H1312       H  0.04844750  0.13156863  0.33010782     0.14690
H1313       H  0.47102101  0.13725958  0.32813697     0.14720
C1314       C  0.46004011  0.08845778  0.33204205    -0.24240
H1315       H  0.07403629  0.17502137  0.32923615     0.04930
H1316       H  0.05609969  0.18590332  0.34755787     0.08150
H1317       H  0.06763851  0.19815293  0.30338377     0.08150
H1318       H  0.45184733  0.07109110  0.35593351     0.08140
H1319       H  0.46298668  0.08230897  0.31179901     0.08140
H1320       H  0.44541332  0.09386792  0.32934997     0.04910
C1321       C  0.39847125  0.02159679  0.34286598    -0.20890
C1322       C  0.40024284  0.00168102  0.33606294    -0.07460
C1323       C  0.37816812  0.48094266  0.33149075     0.13410
C1324       C  0.35524931  0.48108653  0.33332553    -0.20940
C1325       C  0.35368987  0.50129556  0.33980660    -0.07460
C1326       C  0.37575497  0.02189622  0.34450301     0.13400
C1327       C  0.37602383  0.04492737  0.35004089    -0.24290
H1328       H  0.41523982  0.03739469  0.34641868     0.14690
H1329       H  0.33837526  0.46524869  0.32977706     0.14720
C1330       C  0.37827656  0.45816088  0.32572041    -0.24240
H1331       H  0.39555968  0.06026349  0.35059603     0.04930
H1332       H  0.36190733  0.03698100  0.37399088     0.08150
H1333       H  0.37090549  0.05536837  0.33001959     0.08150
H1334       H  0.38324261  0.44767650  0.34589630     0.08140
H1335       H  0.39276801  0.46625401  0.30200421     0.08140
H1336       H  0.35886508  0.44286451  0.32478837     0.04910
C1337       C  0.15210973  0.02551935  0.30859857    -0.20890
C1338       C  0.15207599  0.00501028  0.33274504    -0.07460
C1339       C  0.12862061  0.48386463  0.35783839     0.13410
C1340       C  0.10573501  0.48386159  0.35831250    -0.20940
C1341       C  0.10579499  0.50439986  0.33414036    -0.07460
C1342       C  0.12927743  0.02557126  0.30911331     0.13400
C1343       C  0.13050824  0.04873393  0.28361109    -0.24290
H1344       H  0.17022124  0.04183577  0.28962173     0.14690
H1345       H  0.08765161  0.46762342  0.37737891     0.14720
C1346       C  0.12757738  0.46096860  0.38358832    -0.24240
H1347       H  0.15062569  0.06413298  0.26674034     0.04930
H1348       H  0.12432045  0.05892211  0.29573827     0.08150
H1349       H  0.11743519  0.04104645  0.26870363     0.08150
H1350       H  0.14091287  0.46900156  0.39811724     0.08140
H1351       H  0.13361907  0.45056689  0.37169737     0.08140
H1352       H  0.10754371  0.44568796  0.40073924     0.04910
C1353       C  0.04695494  0.03670540  0.13737700    -0.20890
C1354       C  0.03667444  0.01507475  0.12699724    -0.07460
C1355       C  0.01811188  0.48834575  0.15083012     0.13410
C1356       C  0.01008050  0.48432334  0.18372564    -0.20940
C1357       C  0.01965619  0.50625282  0.19327834    -0.07460
C1358       C  0.03860904  0.03271446  0.16992194     0.13400
C1359       C  0.05047982  0.05734112  0.17837866    -0.24290
H1360       H  0.06131007  0.05723795  0.11973408     0.14690
H1361       H  0.49606527  0.46399331  0.20207961     0.14720
C1362       C  0.00589936  0.46404107  0.14195269    -0.24240
H1363       H  0.04646698  0.07208369  0.16348684     0.04930
H1364       H  0.07199339  0.06714183  0.17273112     0.08150
H1365       H  0.04269940  0.05256334  0.20450519     0.08150
H1366       H  0.02130451  0.46164870  0.13154009     0.08140
H1367       H  0.99523888  0.46661995  0.12400513     0.08140
H1368       H  0.49162080  0.44497639  0.16362918     0.04910
Zr1369     Zr  0.47686894  0.51651921  0.36845439     2.17510
O1370       O  0.43911780  0.99481425  0.41571930    -0.51920
O1371       O  0.48812349  0.56269538  0.35290994    -0.75120
O1372       O  0.49110616  0.52754782  0.41462728    -0.81910
O1373       O  0.43438883  0.99898471  0.31101962    -0.83650
O1374       O  0.02655939  0.52526165  0.41604023    -0.79280
O1375       O  0.43709743  0.51016445  0.35537173    -0.90910
O1376       O  0.02643083  0.59040852  0.31183757    -0.76870
O1377       O  0.02336750  0.54214808  0.35296873    -0.86360
O1378       O  0.49112035  0.53713205  0.31000452    -0.86050
O1379       O  0.48791392  0.98410498  0.39091294    -0.72810
O1380       O  0.45900557  0.98015719  0.34972933    -0.84950
Zr1381     Zr  0.03290043  0.99614871  0.29745323     2.26420
Zr1382     Zr  0.03483572  0.51023716  0.37432242     2.06270
Zr1383     Zr  0.47408028  0.00106395  0.29115900     2.10050
Zr1384     Zr  0.03762168  0.56281652  0.29486713     1.78760
O1385       O  0.43897839  0.96080647  0.28673268    -0.93750
O1386       O  0.07725118  0.59672211  0.30220773    -0.41560
O1387       O  0.02095112  0.52754422  0.27506347    -0.78190
O1388       O  0.05090779  0.53245790  0.31582697    -0.96880
O1389       O  0.01791766  0.97431838  0.35553787    -0.90180
O1390       O  0.48627549  0.96967731  0.31189758    -0.93020
C1391       C  0.50730619  0.58614371  0.33234592     1.00730
C1392       C  0.42540508  0.50343741  0.33413885     1.13660
C1393       C  0.00997647  0.52999723  0.42683474     1.04440
O1394       O  0.07599473  0.54436399  0.37850300    -0.95180
O1395       O  0.07122976  0.50580719  0.35975546    -0.90920
O1396       O  0.07163499  0.00052612  0.31143861    -0.84070
C1397       C  0.08123235  0.00339020  0.33529891     1.11080
O1398       O  0.43097405  0.92541788  0.41418939    -0.97150
Zr1399     Zr  0.47144999  0.94888117  0.37022938     1.88940
O1400       O  0.02006410  0.95017832  0.30916827    -0.73800
O1401       O  0.02698562  0.97481903  0.42470981    -0.53060
O1402       O  0.47551617  0.92412561  0.42059770    -0.97740
O1403       O  0.43333489  0.91450618  0.36082093    -0.54960
O1404       O  0.48532511  0.92202788  0.35505221    -0.74320
C1405       C  0.00298421  0.92678196  0.33158665     0.98030
O1406       O  0.07272663  0.51508638  0.25464303    -0.63140
O1407       O  0.47052970  0.53167751  0.24604140    -0.57940
O1408       O  0.02636145  0.99693261  0.24476235    -0.94620
O1409       O  0.49349247  0.00348344  0.23881564    -0.93050
O1410       O  0.03169500  0.58774998  0.24651815    -0.93410
O1411       O  0.07555440  0.58637347  0.24729563    -0.92190
C1412       C  0.51211344  0.00120028  0.22809089     1.16870
H1413       H  0.48483307  0.54860161  0.30186208     0.32810
H1414       H  0.06980274  0.54269877  0.30878099     0.43670
H1415       H  0.48016824  0.95642895  0.30221504     0.37190
H1416       H  0.48114792  0.97611303  0.41451088     0.33670
H1417       H  0.08042642  0.61437609  0.28830999     0.25460
H1418       H  0.04329576  0.98317467  0.43102547     0.31400
H1419       H  0.46784321  0.90552747  0.42134176     0.37310
H1420       H  0.04212623  0.60689556  0.24409021     0.31770
H1421       H  0.45351844  0.52000989  0.24275319     0.30640
H1422       H  0.43436526  0.96794086  0.26724451     0.32320
H1423       H  0.43163700  0.89720052  0.37267049     0.31290
H1424       H  0.07729307  0.57185461  0.24481735     0.35290
H1425       H  0.06919519  0.50101094  0.24596335     0.28020
H1426       H  0.44093646  0.00972649  0.42169247     0.32260
H1427       H  0.42584303  0.90637794  0.42447617     0.35110
H1428       H  0.46790769  0.54336450  0.25498247     0.27720
H1429       H  0.07436286  0.53016822  0.23654358     0.40590
H1430       H  0.07773923  0.56178073  0.36725206     0.30640
H1431       H  0.07188332  0.59486798  0.32491399     0.38260
H1432       H  0.43873347  0.91802349  0.33740788     0.30110
H1433       H  0.01374837  0.97306229  0.44143484     0.30170
H1434       H  0.44224800  0.98395166  0.43379675     0.30440
Zr1435     Zr  0.48564787  0.77080819  0.36427486     2.17510
O1436       O  0.44659415  0.74634544  0.41061078    -0.51920
O1437       O  0.49578012  0.81591018  0.35214539    -0.75120
O1438       O  0.49899787  0.78041013  0.41110489    -0.81910
O1439       O  0.44688856  0.75856402  0.30257603    -0.83650
O1440       O  0.03386319  0.77695276  0.41358236    -0.79280
O1441       O  0.44716174  0.76652836  0.34905752    -0.90910
O1442       O  0.03247563  0.84504227  0.30865984    -0.76870
O1443       O  0.03213476  0.79651552  0.35036244    -0.86360
O1444       O  0.50119578  0.79339678  0.30608338    -0.86050
O1445       O  0.49689263  0.73863507  0.38623764    -0.72810
O1446       O  0.46842543  0.73600191  0.34340107    -0.84950
Zr1447     Zr  0.04306945  0.75220774  0.29288082     2.26420
Zr1448     Zr  0.04382442  0.76456712  0.37029538     2.06270
Zr1449     Zr  0.48559049  0.75881216  0.28509701     2.10050
Zr1450     Zr  0.04750130  0.81920720  0.29256543     1.78760
O1451       O  0.45024047  0.72036144  0.27796082    -0.93750
O1452       O  0.08414172  0.85233689  0.30516678    -0.41560
O1453       O  0.03225136  0.78478476  0.27106289    -0.78190
O1454       O  0.06052506  0.78816115  0.31210698    -0.96880
O1455       O  0.02691328  0.72921540  0.35075849    -0.90180
O1456       O  0.49657425  0.72648919  0.30591565    -0.93020
C1457       C  0.01354961  0.83963804  0.33090941     1.00730
C1458       C  0.43693566  0.76196843  0.32598271     1.13660
C1459       C  0.01727177  0.78184084  0.42390553     1.04440
O1460       O  0.08375862  0.79851936  0.37698949    -0.95180
O1461       O  0.08110451  0.76173020  0.35474602    -0.90920
O1462       O  0.08190895  0.75665125  0.30638295    -0.84070
C1463       C  0.09146035  0.75963396  0.33023165     1.11080
O1464       O  0.44055094  0.68176378  0.40884380    -0.97150
Zr1465     Zr  0.48042094  0.70456739  0.36417605     1.88940
O1466       O  0.03071869  0.70588499  0.30611845    -0.73800
O1467       O  0.03676670  0.72837563  0.41910963    -0.53060
O1468       O  0.48401126  0.67798891  0.41352151    -0.97740
O1469       O  0.44187738  0.67146277  0.35402151    -0.54960
O1470       O  0.49273885  0.67759214  0.34774477    -0.74320
C1471       C  0.01184049  0.68229473  0.32672642     0.98030
O1472       O  0.08240705  0.77306649  0.24825923    -0.63140
O1473       O  0.48625019  0.79185930  0.23828262    -0.57940
O1474       O  0.03541966  0.75057343  0.24140061    -0.94620
O1475       O  0.50599574  0.76206415  0.23329944    -0.93050
O1476       O  0.04424756  0.84427494  0.24172039    -0.93410
O1477       O  0.08817796  0.84539810  0.24831023    -0.92190
C1478       C  0.02305066  0.75749161  0.22367132     1.16870
H1479       H  0.49482999  0.80481983  0.29813325     0.32810
H1480       H  0.07942157  0.79840196  0.30539776     0.43670
H1481       H  0.49052116  0.71354661  0.29578357     0.37190
H1482       H  0.48987880  0.73020129  0.40981770     0.33670
H1483       H  0.08749777  0.87010734  0.29137995     0.25460
H1484       H  0.05231488  0.73716870  0.42668156     0.31400
H1485       H  0.47498317  0.65934445  0.41411028     0.37310
H1486       H  0.05162449  0.86274958  0.24128501     0.31770
H1487       H  0.46996132  0.78134899  0.23284996     0.30640
H1488       H  0.44682071  0.72859609  0.25792410     0.32320
H1489       H  0.43982906  0.65385879  0.36515986     0.31290
H1490       H  0.08888939  0.83170292  0.24182369     0.35290
H1491       H  0.07977440  0.75906239  0.23982959     0.28020
H1492       H  0.44689784  0.76047938  0.41707711     0.32260
H1493       H  0.43443557  0.66236154  0.41800912     0.35110
H1494       H  0.48360411  0.80366621  0.24692197     0.27720
H1495       H  0.08263289  0.78723996  0.23037045     0.40590
H1496       H  0.08526060  0.81586063  0.36613241     0.30640
H1497       H  0.07680135  0.84940277  0.32778635     0.38260
H1498       H  0.44723661  0.67554814  0.33039984     0.30110
H1499       H  0.02215170  0.72458867  0.43583933     0.30170
H1500       H  0.45001669  0.73584852  0.42870724     0.30440
Zr1501     Zr  0.22651094  0.51742690  0.36822903     2.17510
O1502       O  0.18807414  0.99507974  0.41478582    -0.51920
O1503       O  0.23724254  0.56342138  0.35267658    -0.75120
O1504       O  0.23962156  0.52787850  0.41504849    -0.81910
O1505       O  0.18712940  0.00414007  0.30741248    -0.83650
O1506       O  0.27637062  0.52764435  0.41624459    -0.79280
O1507       O  0.18685300  0.51076245  0.35502455    -0.90910
O1508       O  0.27556362  0.59124051  0.31164257    -0.76870
O1509       O  0.27294017  0.54307908  0.35402190    -0.86360
O1510       O  0.24197653  0.53875980  0.30977971    -0.86050
O1511       O  0.23729771  0.98493388  0.39127972    -0.72810
O1512       O  0.20932942  0.98167193  0.34848877    -0.84950
Zr1513     Zr  0.28392684  0.99770257  0.29811793     2.26420
Zr1514     Zr  0.28420166  0.51114778  0.37588664     2.06270
Zr1515     Zr  0.22556309  0.00330818  0.29000736     2.10050
Zr1516     Zr  0.28842969  0.56423393  0.29603434     1.78760
O1517       O  0.18986599  0.96290439  0.28655537    -0.93750
O1518       O  0.32650534  0.59745903  0.30655967    -0.41560
O1519       O  0.27234850  0.52940480  0.27552078    -0.78190
O1520       O  0.30135111  0.53356076  0.31743639    -0.96880
O1521       O  0.26791497  0.97577598  0.35622645    -0.90180
O1522       O  0.23732273  0.97163402  0.31127867    -0.93020
C1523       C  0.25623314  0.58688799  0.33190746     1.00730
C1524       C  0.17692209  0.50662233  0.33170658     1.13660
C1525       C  0.25892155  0.53147337  0.42674821     1.04440
O1526       O  0.32368524  0.54413975  0.38429534    -0.95180
O1527       O  0.32102038  0.50734301  0.36125745    -0.90920
O1528       O  0.31888178  0.99583531  0.31726476    -0.84070
C1529       C  0.32955493  0.00134538  0.33961098     1.11080
O1530       O  0.17954609  0.92734157  0.41055545    -0.97150
Zr1531     Zr  0.22155059  0.95030780  0.36959154     1.88940
O1532       O  0.27034305  0.95166313  0.30799469    -0.73800
O1533       O  0.27446470  0.97456676  0.42622692    -0.53060
O1534       O  0.22340992  0.92504889  0.42151538    -0.97740
O1535       O  0.18511042  0.91516554  0.35885401    -0.54960
O1536       O  0.23722986  0.92430217  0.35574746    -0.74320
C1537       C  0.25430086  0.92869026  0.33183378     0.98030
O1538       O  0.32574595  0.52104903  0.25623492    -0.63140
O1539       O  0.22327026  0.53382554  0.24327207    -0.57940
O1540       O  0.27885055  0.99967418  0.24435560    -0.94620
O1541       O  0.24554652  0.00550018  0.23809706    -0.93050
O1542       O  0.28471753  0.58969522  0.24591533    -0.93410
O1543       O  0.32808126  0.58873647  0.25062409    -0.92190
C1544       C  0.26461951  0.00382163  0.22739777     1.16870
H1545       H  0.23585180  0.55032728  0.30131032     0.32810
H1546       H  0.32023963  0.54358603  0.31097058     0.43670
H1547       H  0.23140390  0.95854797  0.30135876     0.37190
H1548       H  0.23012903  0.97672337  0.41483847     0.33670
H1549       H  0.32936931  0.61518462  0.29366550     0.25460
H1550       H  0.29142013  0.98086044  0.43113117     0.31400
H1551       H  0.21416205  0.90604950  0.42333796     0.37310
H1552       H  0.29437231  0.60867228  0.24419743     0.31770
H1553       H  0.20574903  0.52265441  0.24080444     0.30640
H1554       H  0.18653601  0.96978451  0.26572512     0.32320
H1555       H  0.18293390  0.89797551  0.37250817     0.31290
H1556       H  0.32843257  0.57438956  0.24541712     0.35290
H1557       H  0.32482070  0.53260371  0.23639052     0.28020
H1558       H  0.18977445  0.00963574  0.42148682     0.32260
H1559       H  0.17433101  0.90838610  0.42206085     0.35110
H1560       H  0.22228839  0.54692625  0.25086593     0.27720
H1561       H  0.33886267  0.53442623  0.26339980     0.40590
H1562       H  0.33236803  0.56042900  0.36353148     0.30640
H1563       H  0.32025733  0.59430617  0.32965209     0.38260
H1564       H  0.19178712  0.91791738  0.33610019     0.30110
H1565       H  0.26371513  0.97526878  0.44344200     0.30170
H1566       H  0.19069221  0.98356955  0.43275594     0.30440
Zr1567     Zr  0.23732123  0.77327015  0.36477005     2.17510
O1568       O  0.20049267  0.75088134  0.41342996    -0.51920
O1569       O  0.24739844  0.81863195  0.35093755    -0.75120
O1570       O  0.25280883  0.78412417  0.41020903    -0.81910
O1571       O  0.19708327  0.76077355  0.30489454    -0.83650
O1572       O  0.28673036  0.77919685  0.41275508    -0.79280
O1573       O  0.19744840  0.76703562  0.35271018    -0.90910
O1574       O  0.28298669  0.84693594  0.30587782    -0.76870
O1575       O  0.28377220  0.79889617  0.34941815    -0.86360
O1576       O  0.25164209  0.79480287  0.30634774    -0.86050
O1577       O  0.24812028  0.74071177  0.38636093    -0.72810
O1578       O  0.21896329  0.73785832  0.34468637    -0.84950
Zr1579     Zr  0.29283740  0.75317906  0.29269477     2.26420
Zr1580     Zr  0.29498819  0.76658427  0.36924635     2.06270
Zr1581     Zr  0.23489657  0.75964015  0.28616772     2.10050
Zr1582     Zr  0.29802308  0.82056937  0.29147009     1.78760
O1583       O  0.19835626  0.72011219  0.28224521    -0.93750
O1584       O  0.33454409  0.85460021  0.30321851    -0.41560
O1585       O  0.28162068  0.78549638  0.27107577    -0.78190
O1586       O  0.31108041  0.78950561  0.31105634    -0.96880
O1587       O  0.27726274  0.73082644  0.35056688    -0.90180
O1588       O  0.24622086  0.72758686  0.30664893    -0.93020
C1589       C  0.26448492  0.84197936  0.32833445     1.00730
C1590       C  0.18721295  0.76316914  0.32951298     1.13660
C1591       C  0.27106080  0.78508611  0.42286870     1.04440
O1592       O  0.33647311  0.80161562  0.37162233    -0.95180
O1593       O  0.33112146  0.76239535  0.35460476    -0.90920
O1594       O  0.32861314  0.75197323  0.31003250    -0.84070
C1595       C  0.33939250  0.75668741  0.33257609     1.11080
O1596       O  0.19129795  0.68375103  0.41004648    -0.97150
Zr1597     Zr  0.23078881  0.70618907  0.36493380     1.88940
O1598       O  0.27888797  0.70660597  0.30404686    -0.73800
O1599       O  0.28899869  0.73145837  0.41852412    -0.53060
O1600       O  0.23497316  0.67991438  0.41394617    -0.97740
O1601       O  0.19175102  0.67296458  0.35566500    -0.54960
O1602       O  0.24252599  0.67885049  0.34811110    -0.74320
C1603       C  0.26058130  0.68318656  0.32572694     0.98030
O1604       O  0.33307222  0.77672334  0.24795020    -0.63140
O1605       O  0.23317601  0.79098554  0.23980192    -0.57940
O1606       O  0.28621597  0.75340324  0.24045189    -0.94620
O1607       O  0.25373477  0.76065932  0.23451968    -0.93050
O1608       O  0.29488930  0.84486904  0.23998518    -0.93410
O1609       O  0.33886945  0.84597462  0.24769543    -0.92190
C1610       C  0.27203601  0.75791280  0.22385254     1.16870
H1611       H  0.24518665  0.80614504  0.29844697     0.32810
H1612       H  0.32996157  0.79944266  0.30406782     0.43670
H1613       H  0.23984757  0.71450475  0.29673374     0.37190
H1614       H  0.24146900  0.73250890  0.40997388     0.33670
H1615       H  0.33767741  0.87215479  0.28901763     0.25460
H1616       H  0.30396282  0.74110418  0.42660915     0.31400
H1617       H  0.22585711  0.66122062  0.41469287     0.37310
H1618       H  0.30508611  0.86414358  0.23707772     0.31770
H1619       H  0.21559105  0.78016564  0.23728902     0.30640
H1620       H  0.19660331  0.72711585  0.26027171     0.32320
H1621       H  0.18940373  0.65528721  0.36736545     0.31290
H1622       H  0.33806058  0.83254442  0.23925103     0.35290
H1623       H  0.33198463  0.78988196  0.23021347     0.28020
H1624       H  0.20230871  0.76561740  0.41981197     0.32260
H1625       H  0.18533349  0.66440460  0.41964054     0.35110
H1626       H  0.23250566  0.80409545  0.24768561     0.27720
H1627       H  0.34736763  0.78855042  0.25539029     0.40590
H1628       H  0.34047103  0.81872503  0.35487337     0.30640
H1629       H  0.32724907  0.85199644  0.32568358     0.38260
H1630       H  0.19693586  0.67650689  0.33220228     0.30110
H1631       H  0.27354406  0.72661293  0.43483858     0.30170
H1632       H  0.20424277  0.74020437  0.43087281     0.30440
Zr1633     Zr  0.05326893  0.57214693  0.01740886     2.17510
O1634       O  0.04514992  0.58653270  0.06025285    -0.51920
O1635       O  0.09850149  0.60921801  0.00681428    -0.75120
O1636       O  0.04872910  0.54585256  0.07299109    -0.81910
O1637       O  0.03991631  0.61706942  0.95458154    -0.83650
O1638       O  0.04041572  0.50445773  0.07957514    -0.79280
O1639       O  0.04214574  0.60579031  0.00663790    -0.90910
O1640       O  0.12483910  0.61035557  0.96632651    -0.76870
O1641       O  0.07660144  0.55225405  0.00817417    -0.86360
O1642       O  0.07479977  0.59416814  0.96010217    -0.86050
O1643       O  0.02009376  0.52452361  0.03484720    -0.72810
O1644       O  0.01910482  0.56348318  0.99140882    -0.84950
Zr1645     Zr  0.03230264  0.51770479  0.94048285     2.26420
Zr1646     Zr  0.04378778  0.50475592  0.02441203     2.06270
Zr1647     Zr  0.04097341  0.58482990  0.93406194     2.10050
Zr1648     Zr  0.09757030  0.57384440  0.95062032     1.78760
O1649       O  0.00655577  0.59114900  0.92073178    -0.93750
O1650       O  0.12769605  0.56310243  0.97148725    -0.41560
O1651       O  0.06453189  0.56529460  0.92301622    -0.78190
O1652       O  0.06613479  0.52642160  0.96692964    -0.96880
O1653       O  0.01050288  0.49620177  0.99756315    -0.90180
O1654       O  0.00900415  0.53755820  0.95004003    -0.93020
C1655       C  0.12088362  0.61971152  0.98677954     1.00730
C1656       C  0.03968283  0.62033335  0.98179855     1.13660
C1657       C  0.04283718  0.52214725  0.09092175     1.04440
O1658       O  0.08026124  0.50260672  0.03783504    -0.95180
O1659       O  0.04288804  0.97085919  0.00550829    -0.90920
O1660       O  0.03309607  0.97699365  0.95728346    -0.84070
C1661       C  0.03820229  0.96432864  0.98086306     1.11080
O1662       O  0.46577940  0.52450368  0.04678294    -0.97150
Zr1663     Zr  0.48743116  0.51613239  0.00709730     1.88940
O1664       O  0.48771205  0.98059604  0.94998930    -0.73800
O1665       O  0.01053046  0.95834129  0.06233087    -0.53060
O1666       O  0.46148352  0.97545196  0.05759135    -0.97740
O1667       O  0.45569846  0.52528409  0.98850921    -0.54960
O1668       O  0.46133499  0.97972686  0.99042806    -0.74320
C1669       C  0.46541492  0.97040968  0.96997168     0.98030
O1670       O  0.05651724  0.51569842  0.89585736    -0.63140
O1671       O  0.07596682  0.62829386  0.89132135    -0.57940
O1672       O  0.02895887  0.53910085  0.88717052    -0.94620
O1673       O  0.03586548  0.57984729  0.88266392    -0.93050
O1674       O  0.12356930  0.61332599  0.89900966    -0.93410
O1675       O  0.12183606  0.56748959  0.91138353    -0.92190
C1676       C  0.03167771  0.56179165  0.87114992     1.16870
H1677       H  0.08631853  0.61359915  0.95295854     0.32810
H1678       H  0.07546440  0.51867875  0.96147736     0.43670
H1679       H  0.99660982  0.53473472  0.93754937     0.37190
H1680       H  0.01035756  0.51649896  0.05761982     0.33670
H1681       H  0.14534117  0.57966636  0.95902417     0.25460
H1682       H  0.01862010  0.95397963  0.07925738     0.31400
H1683       H  0.44356028  0.96608192  0.05544927     0.37310
H1684       H  0.14165710  0.62241530  0.90068403     0.31770
H1685       H  0.06686342  0.63465309  0.87777006     0.30640
H1686       H  0.01591176  0.60932382  0.90263361     0.32320
H1687       H  0.43850604  0.50788586  0.00012842     0.31290
H1688       H  0.10833136  0.55434375  0.90437541     0.35290
H1689       H  0.07093750  0.53488409  0.88317049     0.28020
H1690       H  0.05946469  0.59047990  0.07058382     0.32260
H1691       H  0.44697090  0.50983132  0.05386486     0.35110
H1692       H  0.08298733  0.64083214  0.90259600     0.27720
H1693       H  0.06571873  0.50730653  0.90534638     0.40590
H1694       H  0.08867370  0.51655724  0.04693590     0.30640
H1695       H  0.12523481  0.56248874  0.99402128     0.38260
H1696       H  0.45849378  0.52757655  0.96531506     0.30110
H1697       H  0.99674679  0.95951996  0.07361128     0.30170
H1698       H  0.02886891  0.57085503  0.07744263     0.30440
Zr1699     Zr  0.05612779  0.82458116  0.01368162     2.17510
O1700       O  0.04288739  0.83780727  0.05483596    -0.51920
O1701       O  0.10206118  0.85945249  0.00420891    -0.75120
O1702       O  0.05432791  0.80082167  0.06875270    -0.81910
O1703       O  0.04379443  0.87002648  0.94893574    -0.83650
O1704       O  0.04581122  0.75919313  0.07626033    -0.79280
O1705       O  0.05098975  0.86250087  0.99871897    -0.90910
O1706       O  0.12652456  0.86176098  0.96041070    -0.76870
O1707       O  0.07846944  0.80366529  0.00487760    -0.86360
O1708       O  0.07633616  0.84497418  0.95621859    -0.86050
O1709       O  0.02236246  0.77691266  0.03340947    -0.72810
O1710       O  0.02108204  0.81526315  0.98921185    -0.84950
Zr1711     Zr  0.03133921  0.76684073  0.94127793     2.26420
Zr1712     Zr  0.04503370  0.75614434  0.02327792     2.06270
Zr1713     Zr  0.04163425  0.83507855  0.93165696     2.10050
Zr1714     Zr  0.09830651  0.82380586  0.94721584     1.78760
O1715       O  0.00592665  0.83980034  0.92058776    -0.93750
O1716       O  0.12845428  0.81322992  0.96835160    -0.41560
O1717       O  0.06414605  0.81445166  0.92148145    -0.78190
O1718       O  0.06619280  0.77613608  0.96585774    -0.96880
O1719       O  0.01076775  0.74693322  0.99837348    -0.90180
O1720       O  0.00895405  0.78771978  0.94998364    -0.93020
C1721       C  0.12373434  0.87033254  0.98238166     1.00730
C1722       C  0.04714146  0.87583142  0.97424705     1.13660
C1723       C  0.04919323  0.77748096  0.08688493     1.04440
O1724       O  0.08082987  0.75197053  0.03538545    -0.95180
O1725       O  0.04033087  0.71991855  0.00656838    -0.90920
O1726       O  0.02931320  0.72479309  0.95927623    -0.84070
C1727       C  0.03416585  0.71213933  0.98309451     1.11080
O1728       O  0.46899616  0.77823504  0.04636934    -0.97150
Zr1729     Zr  0.48856360  0.76775308  0.00725440     1.88940
O1730       O  0.48641754  0.72952530  0.95238721    -0.73800
O1731       O  0.01117230  0.71106870  0.06385422    -0.53060
O1732       O  0.46264724  0.72823493  0.05891684    -0.97740
O1733       O  0.45701942  0.77712937  0.98845393    -0.54960
O1734       O  0.46127090  0.72992744  0.99284787    -0.74320
C1735       C  0.46446655  0.71973336  0.97292452     0.98030
O1736       O  0.05742368  0.76534363  0.89818660    -0.63140
O1737       O  0.07517549  0.87757512  0.88630714    -0.57940
O1738       O  0.02648832  0.78610333  0.88869286    -0.94620
O1739       O  0.03629060  0.82834706  0.88123382    -0.93050
O1740       O  0.12421973  0.86228780  0.89470642    -0.93410
O1741       O  0.12059380  0.81636242  0.90703138    -0.92190
C1742       C  0.03058072  0.80914754  0.87130331     1.16870
H1743       H  0.08815067  0.86442238  0.94852859     0.32810
H1744       H  0.07475907  0.76756618  0.96087645     0.43670
H1745       H  0.99618980  0.78456630  0.93802041     0.37190
H1746       H  0.01358929  0.76968612  0.05642563     0.33670
H1747       H  0.14607672  0.82888497  0.95404934     0.25460
H1748       H  0.01989882  0.70642505  0.07969027     0.31400
H1749       H  0.44455180  0.71904039  0.05728785     0.37310
H1750       H  0.14240574  0.87138049  0.89604763     0.31770
H1751       H  0.06554146  0.88525025  0.87639040     0.30640
H1752       H  0.01422980  0.85634846  0.90018975     0.32320
H1753       H  0.43971079  0.76126295  0.00333221     0.31290
H1754       H  0.11488419  0.79713933  0.91737622     0.35290
H1755       H  0.07222588  0.78452814  0.88652449     0.28020
H1756       H  0.05700799  0.84364903  0.06546489     0.32260
H1757       H  0.45004140  0.76390526  0.05434770     0.35110
H1758       H  0.08563578  0.88982044  0.89664333     0.27720
H1759       H  0.06584268  0.75648985  0.90907504     0.40590
H1760       H  0.09172590  0.76761163  0.04103489     0.30640
H1761       H  0.12754868  0.81491625  0.98973271     0.38260
H1762       H  0.45719560  0.77546662  0.96708626     0.30110
H1763       H  0.99894841  0.71374676  0.07587300     0.30170
H1764       H  0.02746551  0.82091971  0.07195134     0.30440
Zr1765     Zr  0.30557960  0.57357744  0.01552034     2.17510
O1766       O  0.29200145  0.58731032  0.05581747    -0.51920
O1767       O  0.35144701  0.60831697  0.00641949    -0.75120
O1768       O  0.30133028  0.54867006  0.07174446    -0.81910
O1769       O  0.29555835  0.62048138  0.94998841    -0.83650
O1770       O  0.29002515  0.50605345  0.07888967    -0.79280
O1771       O  0.30265586  0.61295509  0.99995170    -0.90910
O1772       O  0.37702731  0.60832259  0.96615464    -0.76870
O1773       O  0.32742080  0.55196208  0.00750246    -0.86360
O1774       O  0.32713031  0.59430798  0.95837257    -0.86050
O1775       O  0.27114367  0.52628424  0.03342911    -0.72810
O1776       O  0.27158709  0.56549385  0.98923729    -0.84950
Zr1777     Zr  0.28188662  0.51737824  0.93991698     2.26420
Zr1778     Zr  0.29334607  0.50483467  0.02428037     2.06270
Zr1779     Zr  0.29358053  0.58592663  0.93208745     2.10050
Zr1780     Zr  0.34843527  0.57241997  0.95002982     1.78760
O1781       O  0.25913581  0.59239455  0.91933913    -0.93750
O1782       O  0.37690470  0.55911242  0.97122638    -0.41560
O1783       O  0.31560296  0.56470042  0.92203904    -0.78190
O1784       O  0.31555624  0.52533775  0.96678143    -0.96880
O1785       O  0.26028831  0.49688025  0.99705384    -0.90180
O1786       O  0.26021752  0.53895616  0.94861085    -0.93020
C1787       C  0.37368716  0.61788197  0.98672386     1.00730
C1788       C  0.29883855  0.62618525  0.97534200     1.13660
C1789       C  0.29377378  0.52432688  0.08989837     1.04440
O1790       O  0.32895635  0.50136842  0.03874323    -0.95180
O1791       O  0.29114538  0.96990184  0.00643133    -0.90920
O1792       O  0.28196704  0.97612327  0.95770292    -0.84070
C1793       C  0.28645060  0.96319735  0.98188172     1.11080
O1794       O  0.21833729  0.53152336  0.03996082    -0.97150
Zr1795     Zr  0.23855127  0.51826068  0.00560513     1.88940
O1796       O  0.23648591  0.98156808  0.94962144    -0.73800
O1797       O  0.25943162  0.95906300  0.06325063    -0.53060
O1798       O  0.21233795  0.98084837  0.05897866    -0.97740
O1799       O  0.20661301  0.52508899  0.98357253    -0.54960
O1800       O  0.21211405  0.97849840  0.99427078    -0.74320
C1801       C  0.21503980  0.97000096  0.97222636     0.98030
O1802       O  0.30294654  0.51226881  0.89558374    -0.63140
O1803       O  0.32878753  0.62837055  0.88804180    -0.57940
O1804       O  0.27899008  0.53916241  0.88625951    -0.94620
O1805       O  0.28823517  0.58093555  0.88107659    -0.93050
O1806       O  0.37605786  0.61227213  0.89909649    -0.93410
O1807       O  0.37039428  0.56431410  0.91044335    -0.92190
C1808       C  0.28277577  0.56238440  0.87015669     1.16870
H1809       H  0.33936353  0.61366213  0.95103809     0.32810
H1810       H  0.32435263  0.51698084  0.96176663     0.43670
H1811       H  0.24795083  0.53662723  0.93599015     0.37190
H1812       H  0.26153995  0.51891738  0.05612290     0.33670
H1813       H  0.39487204  0.57452960  0.95774053     0.25460
H1814       H  0.26770241  0.95449185  0.07980813     0.31400
H1815       H  0.19437773  0.97094105  0.05709440     0.37310
H1816       H  0.39412282  0.61964655  0.90069238     0.31770
H1817       H  0.31984147  0.63622343  0.87645594     0.30640
H1818       H  0.26830469  0.60978331  0.89992587     0.32320
H1819       H  0.18946799  0.51034953  0.99988775     0.31290
H1820       H  0.35741252  0.55632422  0.89899574     0.35290
H1821       H  0.31520601  0.53094843  0.87891096     0.28020
H1822       H  0.30547991  0.59229313  0.06750559     0.32260
H1823       H  0.19960148  0.51655525  0.04930443     0.35110
H1824       H  0.33824633  0.64052535  0.89899502     0.27720
H1825       H  0.31476023  0.50718310  0.90400760     0.40590
H1826       H  0.33753231  0.51523531  0.04791921     0.30640
H1827       H  0.37567915  0.55981668  0.99314323     0.38260
H1828       H  0.20595674  0.52021402  0.96431945     0.30110
H1829       H  0.24638051  0.96103712  0.07477917     0.30170
H1830       H  0.27591013  0.57067720  0.07226548     0.30440
Zr1831     Zr  0.30666586  0.82496840  0.01425004     2.17510
O1832       O  0.29393218  0.83880887  0.05502897    -0.51920
O1833       O  0.35231733  0.86120955  0.00235402    -0.75120
O1834       O  0.30630709  0.80266157  0.06923879    -0.81910
O1835       O  0.29129613  0.86801585  0.95054174    -0.83650
O1836       O  0.29696520  0.76048152  0.07724298    -0.79280
O1837       O  0.30000640  0.86189319  0.99943587    -0.90910
O1838       O  0.37747605  0.86063026  0.96219753    -0.76870
O1839       O  0.32994770  0.80500905  0.00498044    -0.86360
O1840       O  0.32617599  0.84485528  0.95667591    -0.86050
O1841       O  0.27394832  0.77700781  0.03464156    -0.72810
O1842       O  0.27076830  0.81388774  0.99120642    -0.84950
Zr1843     Zr  0.28184125  0.76519631  0.94313782     2.26420
Zr1844     Zr  0.29754239  0.75715245  0.02428409     2.06270
Zr1845     Zr  0.29062496  0.83332328  0.93358259     2.10050
Zr1846     Zr  0.34870328  0.82433331  0.94712550     1.78760
O1847       O  0.25434002  0.83688234  0.92244613    -0.93750
O1848       O  0.37946272  0.81324582  0.96483134    -0.41560
O1849       O  0.31372014  0.81328063  0.92269794    -0.78190
O1850       O  0.31760213  0.77663258  0.96642659    -0.96880
O1851       O  0.26216122  0.74563845  0.00064391    -0.90180
O1852       O  0.25893460  0.78553107  0.95250245    -0.93020
C1853       C  0.37430005  0.87054584  0.98234561     1.00730
C1854       C  0.29513636  0.87441766  0.97541009     1.13660
C1855       C  0.30074107  0.77915197  0.08734675     1.04440
O1856       O  0.33443924  0.75583253  0.03750670    -0.95180
O1857       O  0.29825556  0.72319662  0.00718305    -0.90920
O1858       O  0.28523291  0.72580138  0.96101061    -0.84070
C1859       C  0.29270302  0.71531838  0.98369650     1.11080
O1860       O  0.21885656  0.77386355  0.05141908    -0.97150
Zr1861     Zr  0.23937970  0.76602883  0.00989724     1.88940
O1862       O  0.23637323  0.72818323  0.95541533    -0.73800
O1863       O  0.26489991  0.71207199  0.06597594    -0.53060
O1864       O  0.21526057  0.72564835  0.06084838    -0.97740
O1865       O  0.20743134  0.77580270  0.99365059    -0.54960
O1866       O  0.21107630  0.72939219  0.99466753    -0.74320
C1867       C  0.21425053  0.71887604  0.97522131     0.98030
O1868       O  0.30265924  0.76019472  0.89841344    -0.63140
O1869       O  0.32372262  0.87590469  0.88800538    -0.57940
O1870       O  0.27700536  0.78476164  0.89027036    -0.94620
O1871       O  0.28499864  0.82609883  0.88374403    -0.93050
O1872       O  0.37350249  0.86406594  0.89561922    -0.93410
O1873       O  0.37053911  0.81753574  0.90575691    -0.92190
C1874       C  0.27997798  0.80732963  0.87328445     1.16870
H1875       H  0.33781145  0.86435846  0.94857985     0.32810
H1876       H  0.32710162  0.76909775  0.96082573     0.43670
H1877       H  0.24583299  0.78188122  0.94102145     0.37190
H1878       H  0.26526729  0.76993035  0.05765100     0.33670
H1879       H  0.39698690  0.82984848  0.95194548     0.25460
H1880       H  0.27464175  0.70770181  0.08037467     0.31400
H1881       H  0.19695679  0.71597392  0.06002269     0.37310
H1882       H  0.39193874  0.87275137  0.89600356     0.31770
H1883       H  0.31365282  0.88212649  0.87647242     0.30640
H1884       H  0.26250388  0.85376413  0.90251467     0.32320
H1885       H  0.19033431  0.75814960  0.00410261     0.31290
H1886       H  0.35637844  0.80609631  0.89783861     0.35290
H1887       H  0.31381151  0.77867464  0.88087466     0.28020
H1888       H  0.30834758  0.84516314  0.06512491     0.32260
H1889       H  0.19994497  0.75949206  0.05851675     0.35110
H1890       H  0.33265511  0.88898299  0.89809724     0.27720
H1891       H  0.31557280  0.75655739  0.90592120     0.40590
H1892       H  0.34410863  0.77149539  0.04361533     0.30640
H1893       H  0.37776543  0.81230305  0.98751474     0.38260
H1894       H  0.21060802  0.77977598  0.96995538     0.30110
H1895       H  0.25345093  0.71474921  0.07949263     0.30170
H1896       H  0.27878226  0.82199670  0.07258746     0.30440
Zr1897     Zr  0.99808387  0.58155723  0.59504194     2.17510
O1898       O  0.48818629  0.60512932  0.54999641    -0.51920
O1899       O  0.46094343  0.53520286  0.61047009    -0.75120
O1900       O  0.00496542  0.57081677  0.54809827    -0.81910
O1901       O  0.46466819  0.59524980  0.65623964    -0.83650
O1902       O  0.04352749  0.57401931  0.54240194    -0.79280
O1903       O  0.46321381  0.58751167  0.60948057    -0.90910
O1904       O  0.46916518  0.50751175  0.64644262    -0.76870
O1905       O  0.01774633  0.55651881  0.60648947    -0.86360
O1906       O  0.48487780  0.55968338  0.65327681    -0.86050
O1907       O  0.04435502  0.61481225  0.57059804    -0.72810
O1908       O  0.01415706  0.61712392  0.61507524    -0.84950
Zr1909     Zr  0.06678019  0.60158151  0.66143722     2.26420
Zr1910     Zr  0.06377044  0.58916408  0.58314889     2.06270
Zr1911     Zr  0.00132863  0.59500681  0.67337752     2.10050
Zr1912     Zr  0.00486537  0.53482070  0.66437166     1.78760
O1913       O  0.00621563  0.63483858  0.67983913    -0.93750
O1914       O  0.01405943  0.50292304  0.65497767    -0.41560
O1915       O  0.02071938  0.56941942  0.68508375    -0.78190
O1916       O  0.05121362  0.56604273  0.64155883    -0.96880
O1917       O  0.08035918  0.62425630  0.60353590    -0.90180
O1918       O  0.04768363  0.62735656  0.65102939    -0.93020
C1919       C  0.45576361  0.51173548  0.62821468     1.00730
C1920       C  0.45472546  0.59227806  0.63248958     1.13660
C1921       C  0.02257138  0.56871958  0.53388886     1.04440
O1922       O  0.07283885  0.55845175  0.56986126    -0.95180
O1923       O  0.10220901  0.59142999  0.59716892    -0.90920
O1924       O  0.10347179  0.59903402  0.64365321    -0.84070
C1925       C  0.11266939  0.59507239  0.62031774     1.11080
O1926       O  0.04743113  0.67232043  0.55176932    -0.97150
Zr1927     Zr  0.06057409  0.64922404  0.59280446     1.88940
O1928       O  0.10214830  0.64741330  0.64982492    -0.73800
O1929       O  0.09729661  0.62715265  0.53348758    -0.53060
O1930       O  0.09525826  0.67552236  0.54101853    -0.97740
O1931       O  0.05608120  0.68304261  0.60506117    -0.54960
O1932       O  0.10018813  0.67610974  0.60648887    -0.74320
C1933       C  0.11120406  0.67102054  0.62807064     0.98030
O1934       O  0.07996447  0.58227643  0.70621705    -0.63140
O1935       O  0.46268236  0.56452636  0.72091481    -0.57940
O1936       O  0.05208826  0.59701697  0.71631572    -0.94620
O1937       O  0.01140343  0.58925761  0.72584444    -0.93050
O1938       O  0.46692147  0.50726362  0.71274674    -0.93410
O1939       O  0.01310076  0.51138326  0.71147494    -0.92190
C1940       C  0.03110782  0.59096732  0.73525453     1.16870
H1941       H  0.46605480  0.54780562  0.66212964     0.32810
H1942       H  0.05931516  0.55606732  0.64735724     0.43670
H1943       H  0.05375435  0.64018939  0.66131271     0.37190
H1944       H  0.04810063  0.62320917  0.54716592     0.33670
H1945       H  0.99741803  0.48492825  0.66647818     0.25460
H1946       H  0.10959767  0.62194396  0.52839442     0.31400
H1947       H  0.10586312  0.69406115  0.54057673     0.37310
H1948       H  0.45875384  0.48848028  0.71398426     0.31770
H1949       H  0.45704164  0.57611200  0.72506249     0.30640
H1950       H  0.49932288  0.62890275  0.70372178     0.32320
H1951       H  0.07291037  0.70055075  0.59212494     0.31290
H1952       H  0.03231215  0.52261121  0.70723759     0.35290
H1953       H  0.07913480  0.56661622  0.70333875     0.28020
H1954       H  0.47419107  0.59065809  0.54502786     0.32260
H1955       H  0.06244511  0.69150177  0.54121278     0.35110
H1956       H  0.44895096  0.55239920  0.71311894     0.27720
H1957       H  0.09877805  0.59585191  0.70202613     0.40590
H1958       H  0.06178449  0.54101862  0.58917851     0.30640
H1959       H  0.01592954  0.50671349  0.63142721     0.38260
H1960       H  0.05625176  0.67965066  0.62807507     0.30110
H1961       H  0.08847439  0.62614568  0.51609012     0.30170
H1962       H  0.00379254  0.61490107  0.53083968     0.30440
Zr1963     Zr  0.00579758  0.82688408  0.59269057     2.17510
O1964       O  0.00052214  0.85249532  0.54418259    -0.51920
O1965       O  0.46776023  0.78228992  0.60546056    -0.75120
O1966       O  0.01536786  0.81687924  0.54670221    -0.81910
O1967       O  0.46897684  0.83810132  0.65218236    -0.83650
O1968       O  0.05314940  0.81855091  0.54392908    -0.79280
O1969       O  0.46974939  0.83161043  0.60467495    -0.90910
O1970       O  0.46925708  0.75246433  0.64794894    -0.76870
O1971       O  0.02371463  0.80025339  0.60666366    -0.86360
O1972       O  0.48966540  0.80418666  0.65081914    -0.86050
O1973       O  0.05228372  0.85847145  0.57114182    -0.72810
O1974       O  0.02004347  0.86190211  0.61318874    -0.84950
Zr1975     Zr  0.06916637  0.84377934  0.66521743     2.26420
Zr1976     Zr  0.07019600  0.83162480  0.58713465     2.06270
Zr1977     Zr  0.00499289  0.83896410  0.67154866     2.10050
Zr1978     Zr  0.00766349  0.77764518  0.66444579     1.78760
O1979       O  0.00963598  0.87921079  0.67630036    -0.93750
O1980       O  0.01320982  0.74480274  0.65121006    -0.41560
O1981       O  0.02278664  0.81210599  0.68583406    -0.78190
O1982       O  0.05443628  0.80831298  0.64523765    -0.96880
O1983       O  0.08516295  0.86657487  0.60734948    -0.90180
O1984       O  0.05123400  0.87043641  0.65163300    -0.93020
C1985       C  0.45842100  0.75837733  0.62660945     1.00730
C1986       C  0.45998271  0.83536982  0.62777307     1.13660
C1987       C  0.03322755  0.81461630  0.53366490     1.04440
O1988       O  0.07768256  0.79764713  0.58161968    -0.95180
O1989       O  0.10782834  0.83526321  0.60533762    -0.90920
O1990       O  0.10871917  0.84549237  0.65013167    -0.84070
C1991       C  0.11821942  0.84069227  0.62807618     1.11080
O1992       O  0.05632362  0.91546181  0.54814124    -0.97150
Zr1993     Zr  0.06654170  0.89246754  0.59337314     1.88940
O1994       O  0.10409119  0.88955559  0.65633338    -0.73800
O1995       O  0.10639575  0.86690402  0.53813911    -0.53060
O1996       O  0.10441771  0.91885513  0.54501102    -0.97740
O1997       O  0.06142782  0.92701529  0.60220867    -0.54960
O1998       O  0.10298946  0.91805148  0.61168441    -0.74320
C1999       C  0.11290759  0.91325845  0.63467565     0.98030
O2000       O  0.07324845  0.81331678  0.70971199    -0.63140
O2001       O  0.46498593  0.80976994  0.71732278    -0.57940
O2002       O  0.05498482  0.84311679  0.71777382    -0.94620
O2003       O  0.01352281  0.83342163  0.72474621    -0.93050
O2004       O  0.47173192  0.75097420  0.71498698    -0.93410
O2005       O  0.01554573  0.75181509  0.70976551    -0.92190
C2006       C  0.03311105  0.83633271  0.73531197     1.16870
H2007       H  0.47077231  0.79295396  0.65844091     0.32810
H2008       H  0.06224488  0.79817561  0.65206908     0.43670
H2009       H  0.05672626  0.88328271  0.66190627     0.37190
H2010       H  0.05717535  0.86697702  0.54755480     0.33670
H2011       H  0.99721739  0.72692849  0.66551926     0.25460
H2012       H  0.11298811  0.85731634  0.53009179     0.31400
H2013       H  0.11416273  0.93740370  0.54471304     0.37310
H2014       H  0.46173534  0.73242596  0.71531623     0.31770
H2015       H  0.45836200  0.82131272  0.71828850     0.30640
H2016       H  0.50261341  0.87369017  0.70004604     0.32320
H2017       H  0.07869961  0.94427555  0.59036385     0.31290
H2018       H  0.03376048  0.75724521  0.70145824     0.35290
H2019       H  0.05505346  0.79995229  0.72400401     0.28020
H2020       H  0.48870521  0.83886798  0.53625601     0.32260
H2021       H  0.07135754  0.93464661  0.53836536     0.35110
H2022       H  0.45225677  0.79628473  0.70994617     0.27720
H2023       H  0.07657769  0.80243926  0.69991940     0.40590
H2024       H  0.06052465  0.78020187  0.59311235     0.30640
H2025       H  0.01133293  0.74740501  0.62889047     0.38260
H2026       H  0.05995288  0.92352378  0.62563347     0.30110
H2027       H  0.09811955  0.87173588  0.52175983     0.30170
H2028       H  0.01774724  0.86334606  0.52738793     0.30440
Zr2029     Zr  0.24877724  0.57995225  0.59451332     2.17510
O2030       O  0.23901514  0.60277305  0.54856100    -0.51920
O2031       O  0.21209111  0.53373275  0.60909532    -0.75120
O2032       O  0.25678550  0.56950143  0.54782439    -0.81910
O2033       O  0.21396543  0.59281018  0.65505623    -0.83650
O2034       O  0.29675118  0.57544037  0.54049107    -0.79280
O2035       O  0.21318942  0.58498427  0.60857474    -0.90910
O2036       O  0.21783334  0.50594177  0.64861857    -0.76870
O2037       O  0.26891449  0.55542237  0.60615777    -0.86360
O2038       O  0.23488482  0.55768131  0.65271385    -0.86050
O2039       O  0.29494159  0.61371918  0.57065561    -0.72810
O2040       O  0.26364275  0.61514432  0.61507526    -0.84950
Zr2041     Zr  0.31581542  0.60010648  0.66255795     2.26420
Zr2042     Zr  0.31495389  0.58866493  0.58345731     2.06270
Zr2043     Zr  0.25023082  0.59258226  0.67343085     2.10050
Zr2044     Zr  0.25525833  0.53327296  0.66411547     1.78760
O2045       O  0.25460420  0.63184208  0.68108336    -0.93750
O2046       O  0.26293153  0.50113047  0.65245438    -0.41560
O2047       O  0.26986139  0.56729049  0.68582334    -0.78190
O2048       O  0.30154458  0.56518316  0.64184014    -0.96880
O2049       O  0.33002706  0.62316059  0.60465991    -0.90180
O2050       O  0.29637963  0.62549376  0.65151433    -0.93020
C2051       C  0.20525649  0.51017131  0.62898806     1.00730
C2052       C  0.20419300  0.58974327  0.63123047     1.13660
C2053       C  0.27542984  0.56926013  0.53263945     1.04440
O2054       O  0.32398222  0.55681385  0.57366971    -0.95180
O2055       O  0.35394886  0.59301865  0.59822398    -0.90920
O2056       O  0.35413167  0.60022596  0.64529376    -0.84070
C2057       C  0.36392269  0.59695775  0.62169247     1.11080
O2058       O  0.29616204  0.67052709  0.55296448    -0.97150
Zr2059     Zr  0.30997262  0.64775875  0.59333985     1.88940
O2060       O  0.35168416  0.64564501  0.65056449    -0.73800
O2061       O  0.34934724  0.62620271  0.53410183    -0.53060
O2062       O  0.34440095  0.67434424  0.54128839    -0.97740
O2063       O  0.30583204  0.68171473  0.60573987    -0.54960
O2064       O  0.34968793  0.67423404  0.60706325    -0.74320
C2065       C  0.36077461  0.66915264  0.62856223     0.98030
O2066       O  0.32515704  0.57540375  0.70749135    -0.63140
O2067       O  0.21040167  0.56239936  0.71945088    -0.57940
O2068       O  0.30357308  0.60177857  0.71433188    -0.94620
O2069       O  0.26047959  0.58578494  0.72597393    -0.93050
O2070       O  0.21901257  0.50592766  0.71439536    -0.93410
O2071       O  0.26497517  0.50951458  0.70915184    -0.92190
C2072       C  0.28145969  0.59162513  0.73457050     1.16870
H2073       H  0.21605581  0.54568258  0.66128982     0.32810
H2074       H  0.31000091  0.55559091  0.64769024     0.43670
H2075       H  0.30212516  0.63827497  0.66187802     0.37190
H2076       H  0.29882815  0.62222507  0.54721430     0.33670
H2077       H  0.24696789  0.48306408  0.66627418     0.25460
H2078       H  0.35813264  0.61849358  0.52573491     0.31400
H2079       H  0.35502506  0.69282729  0.54100472     0.37310
H2080       H  0.21043896  0.48710253  0.71567293     0.31770
H2081       H  0.20521923  0.57432315  0.72356239     0.30640
H2082       H  0.24676316  0.62524219  0.70489108     0.32320
H2083       H  0.32257511  0.69920887  0.59244632     0.31290
H2084       H  0.28408825  0.52147997  0.70505536     0.35290
H2085       H  0.30838721  0.56281924  0.72524887     0.28020
H2086       H  0.22624385  0.58819643  0.54256262     0.32260
H2087       H  0.31116772  0.68969261  0.54202282     0.35110
H2088       H  0.19682953  0.55105669  0.71078714     0.27720
H2089       H  0.32787511  0.56307117  0.70014620     0.40590
H2090       H  0.30869542  0.53871658  0.58879101     0.30640
H2091       H  0.26196076  0.50367667  0.62980108     0.38260
H2092       H  0.30640273  0.67852409  0.62860077     0.30110
H2093       H  0.34007025  0.62910180  0.51802993     0.30170
H2094       H  0.25524679  0.61354668  0.53004973     0.30440
Zr2095     Zr  0.25620258  0.82882034  0.59413063     2.17510
O2096       O  0.25273940  0.85701556  0.54617371    -0.51920
O2097       O  0.21774671  0.78445400  0.60664194    -0.75120
O2098       O  0.26417591  0.81879207  0.54782649    -0.81910
O2099       O  0.22208779  0.84311781  0.65204464    -0.83650
O2100       O  0.30142842  0.81943317  0.54469124    -0.79280
O2101       O  0.22060628  0.83385835  0.60655014    -0.90910
O2102       O  0.21936780  0.75435801  0.64865240    -0.76870
O2103       O  0.27341943  0.80149851  0.60761256    -0.86360
O2104       O  0.24035050  0.80607373  0.65217142    -0.86050
O2105       O  0.30268835  0.85983309  0.57212103    -0.72810
O2106       O  0.27146310  0.86391518  0.61440620    -0.84950
Zr2107     Zr  0.32082350  0.84497010  0.66583909     2.26420
Zr2108     Zr  0.31982812  0.83230957  0.58756648     2.06270
Zr2109     Zr  0.25668949  0.84094717  0.67258557     2.10050
Zr2110     Zr  0.25790739  0.77907499  0.66538441     1.78760
O2111       O  0.26255068  0.88095380  0.67957410    -0.93750
O2112       O  0.26259003  0.74570556  0.65234827    -0.41560
O2113       O  0.27422645  0.81362455  0.68665791    -0.78190
O2114       O  0.30470421  0.80921700  0.64600240    -0.96880
O2115       O  0.33620910  0.86749809  0.60780319    -0.90180
O2116       O  0.30320713  0.87205169  0.65260227    -0.93020
C2117       C  0.20845063  0.76041931  0.62748620     1.00730
C2118       C  0.21219437  0.83956132  0.62841723     1.13660
C2119       C  0.28139915  0.81589256  0.53468647     1.04440
O2120       O  0.32649112  0.79828710  0.58031473    -0.95180
O2121       O  0.35705390  0.83400311  0.60430977    -0.90920
O2122       O  0.35715855  0.84080810  0.65159654    -0.84070
C2123       C  0.36657661  0.83692206  0.62831315     1.11080
O2124       O  0.31008568  0.91758341  0.54686457    -0.97150
Zr2125     Zr  0.31798731  0.89391231  0.59425540     1.88940
O2126       O  0.35626892  0.89119759  0.65530199    -0.73800
O2127       O  0.35575147  0.86788070  0.53843147    -0.53060
O2128       O  0.35717285  0.92034675  0.54760696    -0.97740
O2129       O  0.31055503  0.92732467  0.60232709    -0.54960
O2130       O  0.35347950  0.92021956  0.61315379    -0.74320
C2131       C  0.36401379  0.91505234  0.63511770     0.98030
O2132       O  0.33314120  0.82339482  0.70969752    -0.63140
O2133       O  0.21585815  0.81187237  0.71710561    -0.57940
O2134       O  0.30451441  0.84146243  0.71975698    -0.94620
O2135       O  0.26367524  0.83330847  0.72630683    -0.93050
O2136       O  0.22232883  0.75296647  0.71621327    -0.93410
O2137       O  0.26647226  0.75292331  0.70935329    -0.92190
C2138       C  0.28286510  0.83523974  0.73705407     1.16870
H2139       H  0.22145792  0.79507719  0.65990888     0.32810
H2140       H  0.31204764  0.79860000  0.65292328     0.43670
H2141       H  0.30887469  0.88490604  0.66287085     0.37190
H2142       H  0.30747844  0.86833980  0.54854530     0.33670
H2143       H  0.24623212  0.72801741  0.66624346     0.25460
H2144       H  0.36429685  0.85920140  0.53222439     0.31400
H2145       H  0.36631196  0.93902975  0.54690020     0.37310
H2146       H  0.21204176  0.73438682  0.71669482     0.31770
H2147       H  0.21007793  0.82395200  0.71876238     0.30640
H2148       H  0.25460546  0.87461705  0.70328991     0.32320
H2149       H  0.32797012  0.94465544  0.59286242     0.31290
H2150       H  0.27935955  0.76650239  0.71648685     0.35290
H2151       H  0.34181448  0.83637066  0.72002826     0.28020
H2152       H  0.23915384  0.84416517  0.53895241     0.32260
H2153       H  0.32462053  0.93692682  0.53865499     0.35110
H2154       H  0.20300285  0.79953630  0.70862326     0.27720
H2155       H  0.31667748  0.80775786  0.72660528     0.40590
H2156       H  0.30973551  0.78076660  0.59341524     0.30640
H2157       H  0.26116859  0.74869577  0.62980292     0.38260
H2158       H  0.30664803  0.92257650  0.62621735     0.30110
H2159       H  0.34726561  0.87047029  0.52120376     0.30170
H2160       H  0.26929339  0.86605707  0.52877192     0.30440
C2161       C  0.43092492  0.71168575  0.62961292    -0.20890
C2162       C  0.43335934  0.73606378  0.62656396    -0.07460
C2163       C  0.41178243  0.73842395  0.62421427     0.13410
C2164       C  0.38837329  0.71628728  0.62467602    -0.20940
C2165       C  0.38592464  0.69185913  0.62786845    -0.07460
C2166       C  0.40754871  0.68956768  0.63013246     0.13400
C2167       C  0.40652002  0.66428646  0.63191821    -0.24290
H2168       H  0.44756010  0.71006502  0.63123535     0.14690
H2169       H  0.37171548  0.71786903  0.62309514     0.14720
C2170       C  0.41289505  0.76373120  0.62252276    -0.24240
H2171       H  0.42580748  0.66691232  0.63108313     0.04930
H2172       H  0.40074591  0.65932254  0.61085119     0.08150
H2173       H  0.39230852  0.64700507  0.65519858     0.08150
H2174       H  0.42729460  0.78108708  0.59938579     0.08140
H2175       H  0.41851422  0.76854769  0.64373431     0.08140
H2176       H  0.39367240  0.76121576  0.62312815     0.04910
C2177       C  0.18076127  0.96174311  0.63776834    -0.20890
C2178       C  0.18134888  0.98584066  0.62990264    -0.07460
C2179       C  0.15882075  0.98551149  0.62511938     0.13410
C2180       C  0.13656794  0.96119093  0.62791065    -0.20940
C2181       C  0.13610332  0.93719167  0.63554073    -0.07460
C2182       C  0.15847140  0.93744013  0.64069378     0.13400
C2183       C  0.15935299  0.91250618  0.64827967    -0.24290
H2184       H  0.19800648  0.96195169  0.64143660     0.14690
H2185       H  0.11932464  0.96089370  0.62401336     0.14720
C2186       C  0.15766173  0.51029754  0.61797186    -0.24240
H2187       H  0.17888451  0.91680923  0.64996525     0.04930
H2188       H  0.15495341  0.90467711  0.62874393     0.08150
H2189       H  0.14484569  0.89668856  0.67221152     0.08150
H2190       H  0.17176599  0.52631798  0.59387083     0.08140
H2191       H  0.16228905  0.51810132  0.63749318     0.08140
H2192       H  0.13793380  0.00570786  0.61693791     0.04910
C2193       C  0.41730604  0.82435251  0.65675962    -0.20890
C2194       C  0.43624470  0.83585555  0.62690408    -0.07460
C2195       C  0.43200858  0.84741203  0.59745588     0.13410
C2196       C  0.40907153  0.84729526  0.59886584    -0.20940
C2197       C  0.39024780  0.83609010  0.62881933    -0.07460
C2198       C  0.39445044  0.82428349  0.65819546     0.13400
C2199       C  0.37504642  0.81126064  0.69128005    -0.24290
H2200       H  0.42038435  0.81521675  0.67927140     0.14690
H2201       H  0.40597260  0.85638027  0.57635336     0.14720
C2202       C  0.45170605  0.86054436  0.56449332    -0.24240
H2203       H  0.38021635  0.80043148  0.71082720     0.04930
H2204       H  0.35521674  0.79624047  0.69109125     0.08150
H2205       H  0.37514615  0.82729334  0.69768201     0.08150
H2206       H  0.45300059  0.84493309  0.55858627     0.08140
H2207       H  0.47115595  0.87639788  0.56462242     0.08140
H2208       H  0.44604783  0.87038369  0.54460703     0.04910
C2209       C  0.15782225  0.84507743  0.59976533    -0.20890
C2210       C  0.14284105  0.84155485  0.62866379    -0.07460
C2211       C  0.15173543  0.83872674  0.65697189     0.13410
C2212       C  0.17461383  0.83881324  0.65550684    -0.20940
C2213       C  0.18909235  0.84145049  0.62692398    -0.07460
C2214       C  0.18070782  0.84514493  0.59834892     0.13400
C2215       C  0.19571251  0.84979600  0.56585077    -0.24290
H2216       H  0.15158386  0.84783387  0.57786048     0.14690
H2217       H  0.18081985  0.83597306  0.67742899     0.14720
C2218       C  0.13706442  0.83427487  0.68955862    -0.24240
H2219       H  0.18710222  0.85419806  0.54601102     0.04930
H2220       H  0.19532188  0.83136506  0.56741271     0.08150
H2221       H  0.21615345  0.86751772  0.55861392     0.08150
H2222       H  0.11759102  0.81507285  0.69847717     0.08140
H2223       H  0.13532247  0.85161086  0.68749235     0.08140
H2224       H  0.14712654  0.83236415  0.70855371     0.04910
C2225       C  0.41178697  0.94466424  0.62210478    -0.20890
C2226       C  0.38709297  0.93865291  0.63614352    -0.07460
C2227       C  0.38494806  0.95713634  0.64660894     0.13410
C2228       C  0.40777488  0.98145732  0.64272739    -0.20940
C2229       C  0.43248370  0.98747873  0.62864913    -0.07460
C2230       C  0.43460801  0.96898005  0.61816063     0.13400
C2231       C  0.46087046  0.97527015  0.60191007    -0.24290
H2232       H  0.41315289  0.93062561  0.61338769     0.14690
H2233       H  0.40639226  0.99558878  0.65121702     0.14720
C2234       C  0.35862001  0.95099099  0.66221735    -0.24240
H2235       H  0.45885372  0.95910581  0.59395227     0.04930
H2236       H  0.47279387  0.97701806  0.61921811     0.08150
H2237       H  0.47133963  0.99467651  0.57995102     0.08150
H2238       H  0.34799567  0.93168645  0.68432383     0.08140
H2239       H  0.34692172  0.94903837  0.64463401     0.08140
H2240       H  0.36051889  0.96730243  0.66976565     0.04910
C2241       C  0.18124649  0.71388725  0.62970767    -0.20890
C2242       C  0.18344310  0.73807544  0.62716281    -0.07460
C2243       C  0.16169833  0.74017398  0.62503151     0.13410
C2244       C  0.13842673  0.71804924  0.62508954    -0.20940
C2245       C  0.13622234  0.69380483  0.62778271    -0.07460
C2246       C  0.15798345  0.69175156  0.62998321     0.13400
C2247       C  0.15712195  0.66658071  0.63178178    -0.24290
H2248       H  0.19796102  0.71239505  0.63123132     0.14690
H2249       H  0.12168205  0.71948597  0.62361053     0.14720
C2250       C  0.16251378  0.76520271  0.62395126    -0.24240
H2251       H  0.17641295  0.66924839  0.63112425     0.04930
H2252       H  0.15142077  0.66154083  0.61072333     0.08150
H2253       H  0.14285890  0.64939117  0.65507574     0.08150
H2254       H  0.17694071  0.78275736  0.60101165     0.08140
H2255       H  0.16797315  0.76971905  0.64537699     0.08140
H2256       H  0.14324083  0.76256386  0.62457506     0.04910
C2257       C  0.43137420  0.60847669  0.59979666    -0.20890
C2258       C  0.43198771  0.59464654  0.63067843    -0.07460
C2259       C  0.41021362  0.58189672  0.65826214     0.13410
C2260       C  0.38847046  0.58308182  0.65420393    -0.20940
C2261       C  0.38766079  0.59652461  0.62331588    -0.07460
C2262       C  0.40957818  0.60971571  0.59578000     0.13400
C2263       C  0.41046145  0.62576215  0.56242015    -0.24290
H2264       H  0.44812280  0.61840614  0.57861723     0.14690
H2265       H  0.37169585  0.57298205  0.67538644     0.14720
C2266       C  0.40920873  0.56606930  0.69181189    -0.24240
H2267       H  0.42966448  0.63594104  0.54409415     0.04930
H2268       H  0.40724597  0.64167768  0.56367689     0.08150
H2269       H  0.39515041  0.61210754  0.55364648     0.08150
H2270       H  0.42461283  0.57990281  0.70029173     0.08140
H2271       H  0.41210575  0.54987004  0.69100623     0.08140
H2272       H  0.39009042  0.55623185  0.71013059     0.04910
C2273       C  0.16817230  0.58372319  0.60593471    -0.20890
C2274       C  0.18097802  0.59166635  0.62898142    -0.07460
C2275       C  0.17148004  0.60149772  0.64821858     0.13410
C2276       C  0.14956834  0.60246771  0.64427938    -0.20940
C2277       C  0.13664708  0.59437724  0.62138565    -0.07460
C2278       C  0.14642855  0.58499977  0.60175126     0.13400
C2279       C  0.13402014  0.57563775  0.57674850    -0.24290
H2280       H  0.17506048  0.57612856  0.59097558     0.14690
H2281       H  0.14239912  0.60954032  0.65969454     0.14720
C2282       C  0.18414208  0.61133940  0.67284468    -0.24240
H2283       H  0.14418007  0.56871010  0.56408380     0.04930
H2284       H  0.13496557  0.59259055  0.55768009     0.08150
H2285       H  0.11339532  0.55823893  0.58901789     0.08150
H2286       H  0.20499804  0.62816934  0.66053527     0.08140
H2287       H  0.18257784  0.59436509  0.69265032     0.08140
H2288       H  0.17454887  0.61919505  0.68459901     0.04910
C2289       C  0.27231931  0.80157029  0.79119752    -0.20890
C2290       C  0.27945699  0.82782234  0.77226144    -0.07460
C2291       C  0.28548164  0.84678272  0.78648939     0.13410
C2292       C  0.28470262  0.83914939  0.81958855    -0.20940
C2293       C  0.27831280  0.81294584  0.83891542    -0.07460
C2294       C  0.27155160  0.79370852  0.82431457     0.13400
C2295       C  0.26370379  0.76497172  0.84270984    -0.24290
H2296       H  0.26789912  0.78728456  0.77963565     0.14690
H2297       H  0.28980315  0.85417977  0.83003887     0.14720
C2298       C  0.29332863  0.87521226  0.76649788    -0.24240
H2299       H  0.25810993  0.75289694  0.82739503     0.04930
H2300       H  0.24653019  0.75454523  0.86446112     0.08150
H2301       H  0.28035557  0.76502479  0.85021044     0.08150
H2302       H  0.27725320  0.87449161  0.75654373     0.08140
H2303       H  0.31122843  0.88536481  0.74586257     0.08140
H2304       H  0.29750788  0.88763579  0.78136597     0.04910
C2305       C  0.27470175  0.90124307  0.96497407    -0.20890
C2306       C  0.29334030  0.89740422  0.97700437    -0.07460
C2307       C  0.30952890  0.91534989  0.99072897     0.13410
C2308       C  0.30633584  0.93604495  0.99243906    -0.20940
C2309       C  0.28767034  0.93985829  0.98052002    -0.07460
C2310       C  0.27158985  0.92206354  0.96657257     0.13400
C2311       C  0.25049784  0.92420832  0.95422040    -0.24290
H2312       H  0.26216743  0.88756412  0.95462898     0.14690
H2313       H  0.31899351  0.94980010  0.00262043     0.14720
C2314       C  0.33103585  0.91371261  0.00247353    -0.24240
H2315       H  0.23856455  0.90741522  0.94656821     0.04930
H2316       H  0.25937149  0.94351122  0.93254536     0.08150
H2317       H  0.23711605  0.92326093  0.97387044     0.08150
H2318       H  0.34411281  0.91450911  0.98265976     0.08140
H2319       H  0.32258602  0.89469176  0.02437520     0.08140
H2320       H  0.34320759  0.93082034  0.00953320     0.04910
C2321       C  0.27502193  0.67237742  0.97516879    -0.20890
C2322       C  0.29500901  0.69266977  0.98225406    -0.07460
C2323       C  0.31699426  0.69141383  0.98615111     0.13410
C2324       C  0.31787858  0.66959197  0.98363373    -0.20940
C2325       C  0.29753265  0.64921011  0.97684422    -0.07460
C2326       C  0.27570492  0.65054726  0.97292665     0.13400
C2327       C  0.25259258  0.62850273  0.96753159    -0.24290
H2328       H  0.25862864  0.67353688  0.97148181     0.14690
H2329       H  0.33467000  0.66858550  0.98659048     0.14720
C2330       C  0.34003875  0.71354856  0.99147028    -0.24240
H2331       H  0.23657393  0.63198857  0.96691191     0.04930
H2332       H  0.24466806  0.60855537  0.98769100     0.08150
H2333       H  0.25863819  0.62788196  0.94377497     0.08150
H2334       H  0.33398981  0.71428017  0.01517138     0.08140
H2335       H  0.34788237  0.73343319  0.97123313     0.08140
H2336       H  0.35609753  0.71010578  0.99209104     0.04910
C2337       C  0.30391356  0.58951054  0.77781502    -0.20890
C2338       C  0.28073718  0.58508297  0.76997944    -0.07460
C2339       C  0.25789994  0.57294946  0.79621019     0.13410
C2340       C  0.25892497  0.56524054  0.82881662    -0.20940
C2341       C  0.28194250  0.56909067  0.83596875    -0.07460
C2342       C  0.30475062  0.58171394  0.81019802     0.13400
C2343       C  0.33016163  0.58715242  0.81681843    -0.24290
H2344       H  0.32171545  0.59885263  0.75851917     0.14690
H2345       H  0.24166850  0.55614926  0.84891540     0.14720
C2346       C  0.23239413  0.56799424  0.79052161    -0.24240
H2347       H  0.34630679  0.59761258  0.79382599     0.04930
H2348       H  0.32775576  0.56770396  0.83104376     0.08150
H2349       H  0.33598659  0.60021458  0.83092540     0.08150
H2350       H  0.22480186  0.55321520  0.77880863     0.08140
H2351       H  0.23530933  0.58741624  0.77478191     0.08140
H2352       H  0.21717031  0.55939041  0.81381448     0.04910
C2353       C  0.44243352  0.67097023  0.98322491    -0.20890
C2354       C  0.44133473  0.69407564  0.97526439    -0.07460
C2355       C  0.41770026  0.69171149  0.97220522     0.13410
C2356       C  0.39567984  0.66625653  0.97742810    -0.20940
C2357       C  0.39675707  0.64315837  0.98533021    -0.07460
C2358       C  0.42040081  0.64550055  0.98831896     0.13400
C2359       C  0.42220942  0.62108434  0.99781141    -0.24290
H2360       H  0.46047210  0.67277785  0.98612659     0.14690
H2361       H  0.37766805  0.66448898  0.97444353     0.14720
C2362       C  0.41588203  0.71612695  0.96234557    -0.24240
H2363       H  0.44176910  0.62632397  0.00054411     0.04930
H2364       H  0.41890102  0.61265452  0.97872796     0.08150
H2365       H  0.40726338  0.60532108  0.02155376     0.08150
H2366       H  0.43096235  0.73186924  0.93868382     0.08140
H2367       H  0.41893219  0.72456021  0.98142013     0.08140
H2368       H  0.39640034  0.71088331  0.95928267     0.04910
C2369       C  0.15694899  0.91940829  0.95297725    -0.20890
C2370       C  0.14692993  0.89550023  0.98075237    -0.07460
C2371       C  0.15971914  0.89603562  0.00529295     0.13410
C2372       C  0.18211999  0.92069072  0.00169184    -0.20940
C2373       C  0.19208656  0.94461512  0.97393832    -0.07460
C2374       C  0.17933836  0.94403811  0.94935166     0.13400
C2375       C  0.18885769  0.96949709  0.91988056    -0.24290
H2376       H  0.14701589  0.91881063  0.93418701     0.14690
H2377       H  0.19204675  0.92130774  0.02048568     0.14720
C2378       C  0.15016962  0.87054564  0.03469573    -0.24240
H2379       H  0.17620406  0.96555120  0.90344098     0.04930
H2380       H  0.20904789  0.97786806  0.90562012     0.08150
H2381       H  0.18879995  0.98485469  0.92792613     0.08150
H2382       H  0.15026422  0.85523648  0.02657432     0.08140
H2383       H  0.12995247  0.86215112  0.04889412     0.08140
H2384       H  0.16278976  0.87445269  0.05117848     0.04910
C2385       C  0.02140901  0.83198332  0.82281659    -0.20890
C2386       C  0.02912559  0.81431829  0.83717322    -0.07460
C2387       C  0.03681630  0.80335698  0.81787212     0.13410
C2388       C  0.03691326  0.81058731  0.78523419    -0.20940
C2389       C  0.03002099  0.82870647  0.77068638    -0.07460
C2390       C  0.02168717  0.83924300  0.78973439     0.13400
C2391       C  0.01406621  0.85876204  0.77501458    -0.24290
H2392       H  0.01543352  0.84040620  0.83741761     0.14690
H2393       H  0.04291192  0.80224067  0.77068729     0.14720
C2394       C  0.04663668  0.78541959  0.83026728    -0.24240
H2395       H  0.00882494  0.86569820  0.79313639     0.04930
H2396       H  0.99683665  0.84874531  0.76626948     0.08150
H2397       H  0.03065206  0.87687739  0.75410380     0.08150
H2398       H  0.03103033  0.76613790  0.85071934     0.08140
H2399       H  0.06408707  0.79656014  0.83799975     0.08140
H2400       H  0.05274647  0.77987140  0.81104761     0.04910
C2401       C  0.39949497  0.92009546  0.96481039    -0.20890
C2402       C  0.39745358  0.89562860  0.98047784    -0.07460
C2403       C  0.41830301  0.89590457  0.99131761     0.13410
C2404       C  0.44070599  0.92084363  0.98671907    -0.20940
C2405       C  0.44274291  0.94532067  0.97103543    -0.07460
C2406       C  0.42195717  0.94502748  0.95999948     0.13400
C2407       C  0.42362461  0.97098144  0.94289081    -0.24290
H2408       H  0.38364128  0.91968419  0.95577973     0.14690
H2409       H  0.45638491  0.92122183  0.99616919     0.14720
C2410       C  0.41666963  0.86993960  0.00821616    -0.24240
H2411       H  0.40584047  0.96709517  0.93522134     0.04930
H2412       H  0.44083845  0.98433752  0.92069551     0.08150
H2413       H  0.42566888  0.98165376  0.95956954     0.08150
H2414       H  0.41448523  0.85930329  0.99145906     0.08140
H2415       H  0.39954280  0.85655515  0.03051492     0.08140
H2416       H  0.43453036  0.87381351  0.01567413     0.04910
C2417       C  0.16707608  0.69231417  0.97840337    -0.20890
C2418       C  0.19064553  0.69369931  0.97699374    -0.07460
C2419       C  0.19061494  0.67021515  0.98042874     0.13170
C2420       C  0.16734129  0.64616992  0.98473728    -0.20940
C2421       C  0.14387510  0.64480070  0.98591770    -0.07460
C2422       C  0.14375518  0.66825209  0.98239144     0.13400
C2423       C  0.11938114  0.66828030  0.98167977    -0.24290
H2424       H  0.16699375  0.71024157  0.97603155     0.14690
H2425       H  0.16745414  0.62826058  0.98703993     0.14720
C2426       C  0.21490117  0.67011953  0.98036417    -0.24240
H2427       H  0.12297465  0.68855838  0.97752112     0.04930
H2428       H  0.10422390  0.65362853  0.00548295     0.08150
H2429       H  0.11205782  0.66247114  0.96171603     0.08150
H2430       H  0.22294832  0.67649704  0.99967162     0.08140
H2431       H  0.22954668  0.68422434  0.95596112     0.08140
H2432       H  0.21096978  0.64963166  0.98518592     0.04910
C2433       C  0.05667300  0.93588965  0.99383866    -0.20890
C2434       C  0.03994486  0.94142089  0.97881438    -0.07460
C2435       C  0.02624035  0.92561999  0.96142600     0.13410
C2436       C  0.02917927  0.90464168  0.96040075    -0.20940
C2437       C  0.04565909  0.89894294  0.97575569    -0.07460
C2438       C  0.05997261  0.91523677  0.99227898     0.13400
C2439       C  0.07958705  0.91189276  0.00732770    -0.24290
H2440       H  0.06774030  0.94822373  0.00645834     0.14690
H2441       H  0.01824470  0.89236195  0.94764836     0.14720
C2442       C  0.00801804  0.93012053  0.94428615    -0.24240
H2443       H  0.09064726  0.92800819  0.01635047     0.04930
H2444       H  0.09398615  0.91305049  0.98882149     0.08150
H2445       H  0.06945471  0.89219614  0.02863374     0.08150
H2446       H  0.01922638  0.95023012  0.92344424     0.08140
H2447       H  0.49302480  0.92891598  0.96179606     0.08140
H2448       H  0.99762236  0.91461628  0.93416634     0.04910
C2449       C  0.02964995  0.65533428  0.95904035    -0.20890
C2450       C  0.03643741  0.64241842  0.98428190    -0.07460
C2451       C  0.04024511  0.65140395  0.01040975     0.13410
C2452       C  0.03914075  0.67382355  0.00907379    -0.20940
C2453       C  0.03337694  0.68740024  0.98321123    -0.07460
C2454       C  0.02763353  0.67718538  0.95828189     0.13400
C2455       C  0.01923645  0.68870753  0.93057979    -0.24290
H2456       H  0.02582349  0.64828805  0.93944561     0.14690
H2457       H  0.04282418  0.68075474  0.02877552     0.14720
C2458       C  0.04507945  0.63766871  0.04037894    -0.24240
H2459       H  0.01455170  0.67726298  0.91452246     0.04930
H2460       H  0.03522720  0.70998003  0.91489663     0.08150
H2461       H  0.00129842  0.68759057  0.94053629     0.08150
H2462       H  0.02788372  0.61649138  0.05348859     0.08140
H2463       H  0.06313725  0.63823613  0.03339897     0.08140
H2464       H  0.04769852  0.64770682  0.05789825     0.04910
C2465       C  0.01854480  0.58216161  0.82515562    -0.20890
C2466       C  0.03021778  0.56794832  0.83682545    -0.07460
C2467       C  0.04154937  0.56132467  0.81486316     0.13410
C2468       C  0.04080721  0.56882097  0.78247339    -0.20940
C2469       C  0.02949192  0.58322228  0.77060196    -0.07460
C2470       C  0.01789328  0.58974371  0.79236419     0.13400
C2471       C  0.00562325  0.60533582  0.78102619    -0.24290
H2472       H  0.00994206  0.58743251  0.84177796     0.14690
H2473       H  0.04933206  0.56334209  0.76608736     0.14720
C2474       C  0.05574693  0.54759775  0.82449306    -0.24240
H2475       H  0.99853315  0.60970768  0.80089278     0.04930
H2476       H  0.98858942  0.59334754  0.77305874     0.08150
H2477       H  0.02022934  0.62498661  0.76030892     0.08150
H2478       H  0.04186385  0.52682189  0.84349752     0.08140
H2479       H  0.07184844  0.55996280  0.83342159     0.08140
H2480       H  0.06466790  0.54553581  0.80353094     0.04910
C2481       C  0.25304815  0.79119856  0.46968734    -0.20890
C2482       C  0.27428099  0.79334159  0.45115332    -0.07460
C2483       C  0.29789458  0.80319321  0.46021629     0.13410
C2484       C  0.29930764  0.81031064  0.48731955    -0.20940
C2485       C  0.27804433  0.80802984  0.50604531    -0.07460
C2486       C  0.25441853  0.79821473  0.49692908     0.13400
C2487       C  0.23017220  0.79448399  0.51558784    -0.24290
H2488       H  0.23496309  0.78360369  0.46305104     0.14690
H2489       H  0.31745811  0.81792533  0.49379148     0.14720
C2490       C  0.32219576  0.80710404  0.44138556    -0.24240
H2491       H  0.21346567  0.78538783  0.50562421     0.04930
H2492       H  0.23408578  0.81444945  0.51367544     0.08150
H2493       H  0.22390704  0.78067456  0.54162556     0.08150
H2494       H  0.32812849  0.82080299  0.41539461     0.08140
H2495       H  0.31860162  0.78722124  0.44326613     0.08140
H2496       H  0.33900803  0.81651095  0.45107256     0.04910
C2497       C  0.30424203  0.78399023  0.16937988    -0.20890
C2498       C  0.27899634  0.76215348  0.18929013    -0.07460
C2499       C  0.26185996  0.74468126  0.17618426     0.13410
C2500       C  0.27030574  0.74977408  0.14308031    -0.20940
C2501       C  0.29522001  0.77227757  0.12281342    -0.07460
C2502       C  0.31247055  0.78953135  0.13613508     0.13400
C2503       C  0.33958560  0.81355292  0.11554156    -0.24290
H2504       H  0.31738798  0.79716053  0.17978512     0.14690
H2505       H  0.25698823  0.73681127  0.13260123     0.14720
C2506       C  0.23488090  0.72069912  0.19707894    -0.24240
H2507       H  0.35086937  0.82394073  0.13041517     0.04930
H2508       H  0.33847207  0.82865515  0.09608290     0.08150
H2509       H  0.35047969  0.80667896  0.10414611     0.08150
H2510       H  0.22331372  0.72778201  0.20642268     0.08140
H2511       H  0.23635692  0.70700141  0.21810095     0.08140
H2512       H  0.22418547  0.70886351  0.18303731     0.04910
C2513       C  0.24737908  0.53692452  0.50916357    -0.20890
C2514       C  0.27144935  0.56041215  0.50482502    -0.07460
C2515       C  0.29080155  0.57490366  0.47412408     0.13410
C2516       C  0.28593119  0.56511801  0.44910872    -0.20940
C2517       C  0.26205106  0.54141680  0.45364435    -0.07460
C2518       C  0.24250735  0.52719649  0.48408301     0.13400
C2519       C  0.21691609  0.00121667  0.49062627    -0.24290
H2520       H  0.23246054  0.52578462  0.53261058     0.14690
H2521       H  0.30087306  0.57611903  0.42570408     0.14720
C2522       C  0.31625964  0.60116335  0.46720714    -0.24240
H2523       H  0.20428468  0.99207864  0.51611732     0.04930
H2524       H  0.22063951  0.98622384  0.48688277     0.08150
H2525       H  0.20607079  0.00529972  0.47378356     0.08150
H2526       H  0.32775851  0.59745319  0.48323509     0.08140
H2527       H  0.31227133  0.61580334  0.47161853     0.08140
H2528       H  0.32845938  0.61060461  0.44141138     0.04910
C2529       C  0.26344728  0.87042706  0.35635806    -0.20890
C2530       C  0.26233975  0.86455989  0.32834259    -0.07460
C2531       C  0.25778465  0.87923823  0.30181807     0.13410
C2532       C  0.25491456  0.89995544  0.30375148    -0.20940
C2533       C  0.25608845  0.90588452  0.33176724    -0.07460
C2534       C  0.26058029  0.89111473  0.35832110     0.13400
C2535       C  0.26336847  0.89777376  0.38816030    -0.24290
H2536       H  0.26683824  0.85891562  0.37663623     0.14690
H2537       H  0.25153657  0.91145792  0.28345449     0.14720
C2538       C  0.25508789  0.87249174  0.27203918    -0.24240
H2539       H  0.26812203  0.88504243  0.40577657     0.04930
H2540       H  0.24476664  0.89408327  0.40103509     0.08150
H2541       H  0.27937131  0.91938664  0.38074783     0.08150
H2542       H  0.23896974  0.85092112  0.27947436     0.08140
H2543       H  0.27363834  0.87589448  0.25949497     0.08140
H2544       H  0.25057221  0.88533830  0.25419353     0.04910
C2545       C  0.28053361  0.63427267  0.32668645    -0.20890
C2546       C  0.25644898  0.61098533  0.33092837    -0.07460
C2547       C  0.23387565  0.61185527  0.33220994     0.13410
C2548       C  0.23600834  0.63601352  0.32969957    -0.20940
C2549       C  0.26010969  0.65924038  0.32556324    -0.07460
C2550       C  0.28267893  0.65840454  0.32406956     0.13400
C2551       C  0.30880593  0.68243318  0.32105819    -0.24290
H2552       H  0.29778236  0.63347441  0.32573079     0.14690
H2553       H  0.21877375  0.63684876  0.33089015     0.14720
C2554       C  0.20779107  0.58785074  0.33509589    -0.24240
H2555       H  0.32390470  0.67757082  0.32206818     0.04930
H2556       H  0.30690109  0.68879406  0.34144877     0.08150
H2557       H  0.31592312  0.69960230  0.29729258     0.08150
H2558       H  0.20052704  0.57070845  0.35894080     0.08140
H2559       H  0.20981412  0.58142284  0.31480622     0.08140
H2560       H  0.19275622  0.59279180  0.33379048     0.04910
C2561       C  0.25748223  0.98837348  0.18163550    -0.20890
C2562       C  0.27218476  0.50885634  0.19244473    -0.07460
C2563       C  0.29472040  0.53369140  0.16988857     0.13410
C2564       C  0.30205285  0.53734900  0.13717714    -0.20940
C2565       C  0.28734304  0.51705232  0.12594791    -0.07460
C2566       C  0.26465003  0.99215402  0.14866602     0.13400
C2567       C  0.24721417  0.96989254  0.13826855    -0.24290
H2568       H  0.24024271  0.96938282  0.19907301     0.14690
H2569       H  0.31912247  0.55666157  0.12001217     0.14720
C2570       C  0.31107833  0.55719335  0.17915249    -0.24240
H2571       H  0.22981251  0.95248920  0.15887688     0.04930
H2572       H  0.25822216  0.96212871  0.12938829     0.08150
H2573       H  0.24010898  0.97775841  0.11863144     0.08150
H2574       H  0.33135867  0.56206460  0.17508801     0.08140
H2575       H  0.30337305  0.55314869  0.20499892     0.08140
H2576       H  0.31165646  0.57527002  0.16355421     0.04910
C2577       C  0.04568399  0.80270413  0.45620843    -0.20890
C2578       C  0.02055169  0.79041694  0.45191103    -0.07460
C2579       C  0.49976937  0.78619786  0.47471170     0.13410
C2580       C  0.00473162  0.79424512  0.50090024    -0.20940
C2581       C  0.02986450  0.80643210  0.50530900    -0.07460
C2582       C  0.05066469  0.81065315  0.48243075     0.13400
C2583       C  0.07832396  0.82390295  0.48470608    -0.24290
H2584       H  0.06180976  0.80629419  0.43869566     0.14690
H2585       H  0.48856899  0.79064214  0.51835389     0.14720
C2586       C  0.47213862  0.77253870  0.47250625    -0.24240
H2587       H  0.09205239  0.82655718  0.46377326     0.04930
H2588       H  0.07911482  0.81108043  0.50736206     0.08150
H2589       H  0.08541125  0.84434031  0.48453203     0.08150
H2590       H  0.46543601  0.75219801  0.47260768     0.08140
H2591       H  0.47119161  0.78518501  0.44988979     0.08140
H2592       H  0.45827799  0.76966495  0.49348430     0.04910
C2593       C  0.39598754  0.75376855  0.35724349    -0.20890
C2594       C  0.41169277  0.76003892  0.32699106    -0.07460
C2595       C  0.40284406  0.76430045  0.29891922     0.13410
C2596       C  0.37900088  0.76240021  0.30201308    -0.20940
C2597       C  0.36359799  0.75666652  0.33210827    -0.07460
C2598       C  0.37220693  0.75204797  0.36026369     0.13400
C2599       C  0.35643835  0.74473077  0.39383104    -0.24290
H2600       H  0.40232126  0.75008587  0.37892586     0.14690
H2601       H  0.37265447  0.76611986  0.28035052     0.14720
C2602       C  0.41851152  0.77182028  0.26521586    -0.24240
H2603       H  0.36527434  0.73978081  0.41311874     0.04930
H2604       H  0.33635909  0.72663904  0.40006282     0.08150
H2605       H  0.35558362  0.76208476  0.39457933     0.08150
H2606       H  0.42032126  0.75496265  0.26457241     0.08140
H2607       H  0.43811964  0.79064454  0.25848663     0.08140
H2608       H  0.40907341  0.77577313  0.24620412     0.04910
C2609       C  0.11761982  0.74478439  0.35790192    -0.20890
C2610       C  0.11609272  0.76073023  0.32952168    -0.07460
C2611       C  0.13822114  0.77773977  0.30143137     0.13410
C2612       C  0.16105739  0.77799784  0.30231719    -0.20940
C2613       C  0.16254398  0.76197746  0.33060362    -0.07460
C2614       C  0.14052647  0.74509332  0.35877887     0.13400
C2615       C  0.14074024  0.72672398  0.38942299    -0.24290
H2616       H  0.10065535  0.73175307  0.37938280     0.14690
H2617       H  0.17802858  0.79102768  0.28083141     0.14720
C2618       C  0.13827565  0.79627037  0.27072025    -0.24240
H2619       H  0.12135641  0.71372681  0.40829005     0.04930
H2620       H  0.15521964  0.73904308  0.40015513     0.08150
H2621       H  0.14581222  0.71321761  0.38358078     0.08150
H2622       H  0.13229269  0.80915227  0.27659362     0.08140
H2623       H  0.12473104  0.78397704  0.25919336     0.08140
H2624       H  0.15796211  0.80991715  0.25244856     0.04910
C2625       C  0.05282770  0.79321750  0.13228958    -0.20890
C2626       C  0.04509296  0.77132897  0.12260399    -0.07460
C2627       C  0.03095949  0.74450408  0.14730684     0.13410
C2628       C  0.02420207  0.74052883  0.18030337    -0.20940
C2629       C  0.03049334  0.76237558  0.18911147    -0.07460
C2630       C  0.04543708  0.78903989  0.16507648     0.13400
C2631       C  0.05377995  0.81316603  0.17404602    -0.24290
H2632       H  0.06412936  0.81386077  0.11402617     0.14690
H2633       H  0.01327994  0.72019430  0.19933348     0.14720
C2634       C  0.02188247  0.71976085  0.13961400    -0.24240
H2635       H  0.06582643  0.83266017  0.15222299     0.04930
H2636       H  0.06560229  0.81338125  0.19133972     0.08150
H2637       H  0.03627478  0.81201109  0.18575965     0.08150
H2638       H  0.03893167  0.72114321  0.12606263     0.08140
H2639       H  0.00797078  0.71802029  0.12504250     0.08140
H2640       H  0.01147139  0.70077252  0.16213694     0.04910
C2641       C  0.03426580  0.55025973  0.49684569    -0.20890
C2642       C  0.01847851  0.55885174  0.50646021    -0.07460
C2643       C  0.49940146  0.55728169  0.48996162     0.13410
C2644       C  0.49712157  0.54767649  0.46460932    -0.20940
C2645       C  0.01314299  0.53932216  0.45479910    -0.07460
C2646       C  0.03197841  0.54058211  0.47170054     0.13400
C2647       C  0.04997293  0.53173117  0.46407770    -0.24290
H2648       H  0.04866256  0.55091276  0.50935182     0.14690
H2649       H  0.48266574  0.54690574  0.45215697     0.14720
C2650       C  0.48149769  0.56603967  0.49814334    -0.24240
H2651       H  0.06257832  0.53334087  0.48058262     0.04930
H2652       H  0.06327369  0.54491091  0.43874889     0.08150
H2653       H  0.03830069  0.51015386  0.46725397     0.08150
H2654       H  0.49331474  0.58763815  0.49481574     0.08140
H2655       H  0.46858552  0.55299233  0.52370589     0.08140
H2656       H  0.46858797  0.56425252  0.48202075     0.04910
C2657       C  0.00428587  0.88695919  0.36005316    -0.20890
C2658       C  0.00464287  0.90399449  0.33097926    -0.07460
C2659       C  0.00809655  0.89988992  0.30180654     0.13410
C2660       C  0.01153061  0.87900237  0.30244828    -0.20940
C2661       C  0.01132090  0.86209118  0.33149300    -0.07460
C2662       C  0.00767441  0.86606069  0.36068893     0.13400
C2663       C  0.00822167  0.84896457  0.39225544    -0.24290
H2664       H  0.00195272  0.89044724  0.38221608     0.14690
H2665       H  0.01389842  0.87548826  0.28031155     0.14720
C2666       C  0.00726040  0.91675899  0.27028637    -0.24240
H2667       H  0.00668247  0.85602433  0.41206190     0.04930
H2668       H  0.02686913  0.84999921  0.38846407     0.08150
H2669       H  0.49150901  0.82757907  0.40074371     0.08150
H2670       H  0.02404970  0.93818479  0.26125631     0.08140
H2671       H  0.48864376  0.91576731  0.27436925     0.08140
H2672       H  0.00839927  0.90937099  0.25069613     0.04910
C2673       C  0.03156369  0.63290196  0.32961410    -0.20890
C2674       C  0.00778398  0.61026253  0.33173418    -0.07460
C2675       C  0.48571228  0.61181377  0.33103201     0.13410
C2676       C  0.48792413  0.63594519  0.32855830    -0.20940
C2677       C  0.01163191  0.65849813  0.32664931    -0.07460
C2678       C  0.03375453  0.65702928  0.32729276     0.13400
C2679       C  0.05931430  0.68032835  0.32684401    -0.24290
H2680       H  0.04844750  0.63156863  0.33010779     0.14690
H2681       H  0.47102095  0.63725953  0.32813705     0.14720
C2682       C  0.46004007  0.58845775  0.33204209    -0.24240
H2683       H  0.07403630  0.67502137  0.32923612     0.04930
H2684       H  0.05609970  0.68590332  0.34755785     0.08150
H2685       H  0.06763851  0.69815294  0.30338375     0.08150
H2686       H  0.45184730  0.57109106  0.35593354     0.08140
H2687       H  0.46298665  0.58230894  0.31179904     0.08140
H2688       H  0.44541328  0.59386787  0.32935002     0.04910
C2689       C  0.39847123  0.52159677  0.34286599    -0.20890
C2690       C  0.40024283  0.50168101  0.33606294    -0.07460
C2691       C  0.37816813  0.98094266  0.33149077     0.13410
C2692       C  0.35524932  0.98108653  0.33332554    -0.20940
C2693       C  0.35368989  0.00129558  0.33980660    -0.07460
C2694       C  0.37575495  0.52189620  0.34450303     0.13400
C2695       C  0.37602381  0.54492734  0.35004092    -0.24290
H2696       H  0.41523979  0.53739467  0.34641871     0.14690
H2697       H  0.33837526  0.96524869  0.32977709     0.14720
C2698       C  0.37827656  0.95816088  0.32572045    -0.24240
H2699       H  0.39555965  0.56026346  0.35059607     0.04930
H2700       H  0.36190730  0.53698096  0.37399091     0.08150
H2701       H  0.37090548  0.55536835  0.33001963     0.08150
H2702       H  0.38324261  0.94767650  0.34589634     0.08140
H2703       H  0.39276801  0.96625399  0.30200424     0.08140
H2704       H  0.35886508  0.94286450  0.32478841     0.04910
C2705       C  0.15210972  0.52551933  0.30859855    -0.20890
C2706       C  0.15207598  0.50501028  0.33274505    -0.07460
C2707       C  0.12862060  0.98386459  0.35783834     0.13410
C2708       C  0.10573500  0.98386155  0.35831245    -0.20940
C2709       C  0.10579499  0.00439985  0.33414035    -0.07460
C2710       C  0.12927741  0.52557124  0.30911329     0.13400
C2711       C  0.13050822  0.54873390  0.28361104    -0.24290
H2712       H  0.17022122  0.54183573  0.28962168     0.14690
H2713       H  0.08765159  0.96762336  0.37737883     0.14720
C2714       C  0.12757737  0.96096854  0.38358823    -0.24240
H2715       H  0.15062567  0.56413293  0.26674027     0.04930
H2716       H  0.12432045  0.55892210  0.29573818     0.08150
H2717       H  0.11743516  0.54104639  0.26870360     0.08150
H2718       H  0.14091284  0.96900147  0.39811718     0.08140
H2719       H  0.13361907  0.95056686  0.37169724     0.08140
H2720       H  0.10754369  0.94568788  0.40073913     0.04910
C2721       C  0.04695502  0.53670541  0.13737699    -0.20890
C2722       C  0.03667445  0.51507476  0.12699723    -0.07460
C2723       C  0.01811195  0.98834572  0.15083014     0.13410
C2724       C  0.01008057  0.98432329  0.18372567    -0.20940
C2725       C  0.01965618  0.00625278  0.19327836    -0.07460
C2726       C  0.03860912  0.53271449  0.16992193     0.13400
C2727       C  0.05047997  0.55734114  0.17837866    -0.24290
H2728       H  0.06131020  0.55723795  0.11973408     0.14690
H2729       H  0.49606523  0.96399331  0.20207962     0.14720
C2730       C  0.00589950  0.96404103  0.14195272    -0.24240
H2731       H  0.04646721  0.57208377  0.16348681     0.04930
H2732       H  0.07199353  0.56714178  0.17273117     0.08150
H2733       H  0.04269953  0.55256337  0.20450518     0.08150
H2734       H  0.02130470  0.96164875  0.13154007     0.08140
H2735       H  0.99523898  0.96661984  0.12400520     0.08140
H2736       H  0.49162075  0.94497639  0.16362919     0.04910
Zr2737     Zr  0.97686895  0.01651922  0.36845439     2.17510
O2738       O  0.93911780  0.49481425  0.41571929    -0.51920
O2739       O  0.98812350  0.06269539  0.35290994    -0.75120
O2740       O  0.99110616  0.02754782  0.41462728    -0.81910
O2741       O  0.93438882  0.49898471  0.31101960    -0.83650
O2742       O  0.52655939  0.02526165  0.41604024    -0.79280
O2743       O  0.93709744  0.01016446  0.35537172    -0.90910
O2744       O  0.52643084  0.09040853  0.31183759    -0.76870
O2745       O  0.52336750  0.04214809  0.35296873    -0.86360
O2746       O  0.99112035  0.03713206  0.31000451    -0.86050
O2747       O  0.98791390  0.48410497  0.39091293    -0.72810
O2748       O  0.95900556  0.48015719  0.34972932    -0.84950
Zr2749     Zr  0.53290042  0.49614869  0.29745325     2.26420
Zr2750     Zr  0.53483573  0.01023717  0.37432243     2.06270
Zr2751     Zr  0.97408027  0.50106395  0.29115899     2.10050
Zr2752     Zr  0.53762168  0.06281653  0.29486713     1.78760
O2753       O  0.93897838  0.46080647  0.28673267    -0.93750
O2754       O  0.57725120  0.09672212  0.30220772    -0.41560
O2755       O  0.52095113  0.02754422  0.27506348    -0.78190
O2756       O  0.55090780  0.03245791  0.31582698    -0.96880
O2757       O  0.51791764  0.47431837  0.35553789    -0.90180
O2758       O  0.98627547  0.46967730  0.31189757    -0.93020
C2759       C  0.00730620  0.08614372  0.33234592     1.00730
C2760       C  0.92540509  0.00343742  0.33413885     1.13660
C2761       C  0.50997647  0.02999723  0.42683475     1.04440
O2762       O  0.57599474  0.04436401  0.37850300    -0.95180
O2763       O  0.57122977  0.00580721  0.35975545    -0.90920
O2764       O  0.57163499  0.50052613  0.31143862    -0.84070
C2765       C  0.58123235  0.50339021  0.33529892     1.11080
O2766       O  0.93097402  0.42541788  0.41418937    -0.97150
Zr2767     Zr  0.97144997  0.44888116  0.37022938     1.88940
O2768       O  0.52006407  0.45017829  0.30916829    -0.73800
O2769       O  0.52698561  0.47481902  0.42470982    -0.53060
O2770       O  0.97551613  0.42412560  0.42059770    -0.97740
O2771       O  0.93333487  0.41450617  0.36082092    -0.54960
O2772       O  0.98532508  0.42202786  0.35505222    -0.74320
C2773       C  0.50298418  0.42678194  0.33158667     0.98030
O2774       O  0.57272667  0.01508652  0.25464299    -0.63140
O2775       O  0.97052970  0.03167751  0.24604139    -0.57940
O2776       O  0.52636147  0.49693266  0.24476233    -0.94620
O2777       O  0.99349244  0.50348343  0.23881562    -0.93050
O2778       O  0.53169498  0.08774999  0.24651817    -0.93410
O2779       O  0.57555438  0.08637349  0.24729561    -0.92190
C2780       C  0.01211344  0.50120031  0.22809086     1.16870
H2781       H  0.98483308  0.04860162  0.30186208     0.32810
H2782       H  0.56980275  0.04269878  0.30878100     0.43670
H2783       H  0.98016822  0.45642894  0.30221503     0.37190
H2784       H  0.98114791  0.47611302  0.41451087     0.33670
H2785       H  0.58042644  0.11437610  0.28830998     0.25460
H2786       H  0.54329575  0.48317466  0.43102548     0.31400
H2787       H  0.96784317  0.40552746  0.42134177     0.37310
H2788       H  0.54212621  0.10689557  0.24409024     0.31770
H2789       H  0.95351844  0.02000989  0.24275319     0.30640
H2790       H  0.93436524  0.46794086  0.26724452     0.32320
H2791       H  0.93163697  0.39720052  0.37267049     0.31290
H2792       H  0.57729324  0.07185467  0.24481754     0.35290
H2793       H  0.56919528  0.00101110  0.24596332     0.28020
H2794       H  0.94093645  0.50972649  0.42169246     0.32260
H2795       H  0.92584300  0.40637795  0.42447616     0.35110
H2796       H  0.96790770  0.04336450  0.25498246     0.27720
H2797       H  0.57436282  0.03016832  0.23654354     0.40590
H2798       H  0.57773922  0.06178075  0.36725209     0.30640
H2799       H  0.57188335  0.09486799  0.32491398     0.38260
H2800       H  0.93873346  0.41802347  0.33740786     0.30110
H2801       H  0.51374836  0.47306228  0.44143485     0.30170
H2802       H  0.94224799  0.48395166  0.43379674     0.30440
Zr2803     Zr  0.98564787  0.27080818  0.36427487     2.17510
O2804       O  0.94659415  0.24634541  0.41061079    -0.51920
O2805       O  0.99578011  0.31591017  0.35214541    -0.75120
O2806       O  0.99899787  0.28041012  0.41110490    -0.81910
O2807       O  0.94688857  0.25856403  0.30257603    -0.83650
O2808       O  0.53386319  0.27695275  0.41358236    -0.79280
O2809       O  0.94716173  0.26652835  0.34905752    -0.90910
O2810       O  0.53247562  0.34504226  0.30865987    -0.76870
O2811       O  0.53213475  0.29651552  0.35036245    -0.86360
O2812       O  0.00119578  0.29339678  0.30608339    -0.86050
O2813       O  0.99689263  0.23863506  0.38623764    -0.72810
O2814       O  0.96842543  0.23600191  0.34340106    -0.84950
Zr2815     Zr  0.54306945  0.25220775  0.29288082     2.26420
Zr2816     Zr  0.54382442  0.26456711  0.37029539     2.06270
Zr2817     Zr  0.98559049  0.25881217  0.28509700     2.10050
Zr2818     Zr  0.54750130  0.31920721  0.29256544     1.78760
O2819       O  0.95024047  0.22036146  0.27796080    -0.93750
O2820       O  0.58414171  0.35233688  0.30516681    -0.41560
O2821       O  0.53225136  0.28478477  0.27106290    -0.78190
O2822       O  0.56052506  0.28816116  0.31210699    -0.96880
O2823       O  0.52691328  0.22921540  0.35075848    -0.90180
O2824       O  0.99657425  0.22648920  0.30591564    -0.93020
C2825       C  0.51354960  0.33963803  0.33090944     1.00730
C2826       C  0.93693566  0.26196843  0.32598271     1.13660
C2827       C  0.51727177  0.28184083  0.42390554     1.04440
O2828       O  0.58375862  0.29851935  0.37698950    -0.95180
O2829       O  0.58110450  0.26173019  0.35474602    -0.90920
O2830       O  0.58190893  0.25665123  0.30638296    -0.84070
C2831       C  0.59146034  0.25963394  0.33023165     1.11080
O2832       O  0.94055095  0.18176377  0.40884378    -0.97150
Zr2833     Zr  0.98042095  0.20456739  0.36417603     1.88940
O2834       O  0.53071870  0.20588501  0.30611843    -0.73800
O2835       O  0.53676670  0.22837562  0.41910963    -0.53060
O2836       O  0.98401127  0.17798891  0.41352149    -0.97740
O2837       O  0.94187739  0.17146277  0.35402149    -0.54960
O2838       O  0.99273888  0.17759216  0.34774473    -0.74320
C2839       C  0.51184050  0.18229475  0.32672639     0.98030
O2840       O  0.58240706  0.27306659  0.24825919    -0.63140
O2841       O  0.98625019  0.29185931  0.23828261    -0.57940
O2842       O  0.53541965  0.25057341  0.24140062    -0.94620
O2843       O  0.00599577  0.26206417  0.23329944    -0.93050
O2844       O  0.54424755  0.34427494  0.24172041    -0.93410
O2845       O  0.58817796  0.34539813  0.24831024    -0.92190
C2846       C  0.52305067  0.25749161  0.22367133     1.16870
H2847       H  0.99482999  0.30481983  0.29813326     0.32810
H2848       H  0.57942157  0.29840196  0.30539777     0.43670
H2849       H  0.99052117  0.21354662  0.29578355     0.37190
H2850       H  0.98987880  0.23020128  0.40981769     0.33670
H2851       H  0.58749776  0.37010733  0.29137999     0.25460
H2852       H  0.55231488  0.23716869  0.42668156     0.31400
H2853       H  0.97498319  0.15934445  0.41411024     0.37310
H2854       H  0.55162446  0.36274957  0.24128505     0.31770
H2855       H  0.96996132  0.28134900  0.23284996     0.30640
H2856       H  0.94682074  0.22859611  0.25792405     0.32320
H2857       H  0.93982909  0.15385879  0.36515983     0.31290
H2858       H  0.58888947  0.33170294  0.24182382     0.35290
H2859       H  0.57977445  0.25906250  0.23982954     0.28020
H2860       H  0.94689783  0.26047936  0.41707713     0.32260
H2861       H  0.93443559  0.16236153  0.41800910     0.35110
H2862       H  0.98360412  0.30366622  0.24692196     0.27720
H2863       H  0.58263286  0.28724004  0.23037043     0.40590
H2864       H  0.58526060  0.31586062  0.36613243     0.30640
H2865       H  0.57680134  0.34940276  0.32778638     0.38260
H2866       H  0.94723663  0.17554814  0.33039982     0.30110
H2867       H  0.52215170  0.22458867  0.43583934     0.30170
H2868       H  0.95001670  0.23584850  0.42870725     0.30440
Zr2869     Zr  0.72651095  0.01742690  0.36822903     2.17510
O2870       O  0.68807413  0.49507974  0.41478583    -0.51920
O2871       O  0.73724255  0.06342138  0.35267658    -0.75120
O2872       O  0.73962156  0.02787850  0.41504849    -0.81910
O2873       O  0.68712940  0.50414008  0.30741249    -0.83650
O2874       O  0.77637062  0.02764435  0.41624459    -0.79280
O2875       O  0.68685301  0.01076245  0.35502455    -0.90910
O2876       O  0.77556363  0.09124051  0.31164257    -0.76870
O2877       O  0.77294017  0.04307909  0.35402190    -0.86360
O2878       O  0.74197654  0.03875981  0.30977971    -0.86050
O2879       O  0.73729770  0.48493387  0.39127973    -0.72810
O2880       O  0.70932942  0.48167193  0.34848878    -0.84950
Zr2881     Zr  0.78392683  0.49770256  0.29811794     2.26420
Zr2882     Zr  0.78420167  0.01114778  0.37588665     2.06270
Zr2883     Zr  0.72556309  0.50330818  0.29000737     2.10050
Zr2884     Zr  0.78842969  0.06423393  0.29603434     1.78760
O2885       O  0.68986598  0.46290440  0.28655537    -0.93750
O2886       O  0.82650535  0.09745903  0.30655967    -0.41560
O2887       O  0.77234851  0.02940481  0.27552078    -0.78190
O2888       O  0.80135112  0.03356076  0.31743640    -0.96880
O2889       O  0.76791496  0.47577597  0.35622645    -0.90180
O2890       O  0.73732272  0.47163402  0.31127867    -0.93020
C2891       C  0.75623315  0.08688799  0.33190747     1.00730
C2892       C  0.67692209  0.00662234  0.33170658     1.13660
C2893       C  0.75892155  0.03147337  0.42674821     1.04440
O2894       O  0.82368524  0.04413974  0.38429536    -0.95180
O2895       O  0.82102038  0.00734301  0.36125746    -0.90920
O2896       O  0.81888177  0.49583530  0.31726477    -0.84070
C2897       C  0.82955492  0.50134537  0.33961098     1.11080
O2898       O  0.67954608  0.42734157  0.41055544    -0.97150
Zr2899     Zr  0.72155058  0.45030779  0.36959155     1.88940
O2900       O  0.77034303  0.45166312  0.30799470    -0.73800
O2901       O  0.77446469  0.47456674  0.42622693    -0.53060
O2902       O  0.72340990  0.42504888  0.42151539    -0.97740
O2903       O  0.68511041  0.41516554  0.35885400    -0.54960
O2904       O  0.73722984  0.42430216  0.35574746    -0.74320
C2905       C  0.75430085  0.42869025  0.33183379     0.98030
O2906       O  0.82574596  0.02104903  0.25623493    -0.63140
O2907       O  0.72327027  0.03382555  0.24327208    -0.57940
O2908       O  0.77885054  0.49967417  0.24435561    -0.94620
O2909       O  0.74554651  0.50550019  0.23809707    -0.93050
O2910       O  0.78471754  0.08969522  0.24591533    -0.93410
O2911       O  0.82808127  0.08873647  0.25062409    -0.92190
C2912       C  0.76461951  0.50382163  0.22739778     1.16870
H2913       H  0.73585181  0.05032728  0.30131033     0.32810
H2914       H  0.82023963  0.04358603  0.31097058     0.43670
H2915       H  0.73140389  0.45854797  0.30135876     0.37190
H2916       H  0.73012902  0.47672336  0.41483848     0.33670
H2917       H  0.82936932  0.11518462  0.29366551     0.25460
H2918       H  0.79142012  0.48086042  0.43113118     0.31400
H2919       H  0.71416203  0.40604950  0.42333797     0.37310
H2920       H  0.79437233  0.10867228  0.24419744     0.31770
H2921       H  0.70574904  0.02265442  0.24080444     0.30640
H2922       H  0.68653599  0.46978452  0.26572514     0.32320
H2923       H  0.68293388  0.39797550  0.37250817     0.31290
H2924       H  0.82843258  0.07438955  0.24541713     0.35290
H2925       H  0.82482071  0.03260370  0.23639053     0.28020
H2926       H  0.68977445  0.50963574  0.42148683     0.32260
H2927       H  0.67433099  0.40838610  0.42206085     0.35110
H2928       H  0.72228840  0.04692625  0.25086593     0.27720
H2929       H  0.83886267  0.03442623  0.26339980     0.40590
H2930       H  0.83236803  0.06042900  0.36353150     0.30640
H2931       H  0.82025734  0.09430617  0.32965209     0.38260
H2932       H  0.69178712  0.41791737  0.33610019     0.30110
H2933       H  0.76371512  0.47526877  0.44344201     0.30170
H2934       H  0.69069221  0.48356955  0.43275594     0.30440
Zr2935     Zr  0.73732122  0.27327014  0.36477006     2.17510
O2936       O  0.70049267  0.25088133  0.41342998    -0.51920
O2937       O  0.74739843  0.31863194  0.35093756    -0.75120
O2938       O  0.75280883  0.28412417  0.41020903    -0.81910
O2939       O  0.69708326  0.26077353  0.30489456    -0.83650
O2940       O  0.78673037  0.27919686  0.41275508    -0.79280
O2941       O  0.69744839  0.26703561  0.35271019    -0.90910
O2942       O  0.78298667  0.34693593  0.30587782    -0.76870
O2943       O  0.78377219  0.29889618  0.34941815    -0.86360
O2944       O  0.75164208  0.29480286  0.30634775    -0.86050
O2945       O  0.74812028  0.24071177  0.38636094    -0.72810
O2946       O  0.71896329  0.23785831  0.34468639    -0.84950
Zr2947     Zr  0.79283740  0.25317906  0.29269478     2.26420
Zr2948     Zr  0.79498819  0.26658428  0.36924634     2.06270
Zr2949     Zr  0.73489656  0.25964014  0.28616773     2.10050
Zr2950     Zr  0.79802307  0.32056937  0.29147009     1.78760
O2951       O  0.69835626  0.22011217  0.28224523    -0.93750
O2952       O  0.83454408  0.35460021  0.30321850    -0.41560
O2953       O  0.78162068  0.28549637  0.27107578    -0.78190
O2954       O  0.81108041  0.28950562  0.31105634    -0.96880
O2955       O  0.77726275  0.23082645  0.35056689    -0.90180
O2956       O  0.74622086  0.22758685  0.30664894    -0.93020
C2957       C  0.76448491  0.34197935  0.32833446     1.00730
C2958       C  0.68721294  0.26316912  0.32951300     1.13660
C2959       C  0.77106081  0.28508611  0.42286870     1.04440
O2960       O  0.83647311  0.30161564  0.37162231    -0.95180
O2961       O  0.83112146  0.26239536  0.35460476    -0.90920
O2962       O  0.82861314  0.25197323  0.31003251    -0.84070
C2963       C  0.83939251  0.25668741  0.33257610     1.11080
O2964       O  0.69129796  0.18375102  0.41004651    -0.97150
Zr2965     Zr  0.73078882  0.20618907  0.36493382     1.88940
O2966       O  0.77888797  0.20660597  0.30404686    -0.73800
O2967       O  0.78899870  0.23145839  0.41852412    -0.53060
O2968       O  0.73497318  0.17991438  0.41394618    -0.97740
O2969       O  0.69175103  0.17296457  0.35566503    -0.54960
O2970       O  0.74252600  0.17885049  0.34811111    -0.74320
C2971       C  0.76058131  0.18318656  0.32572695     0.98030
O2972       O  0.83307222  0.27672335  0.24795020    -0.63140
O2973       O  0.73317599  0.29098552  0.23980194    -0.57940
O2974       O  0.78621597  0.25340324  0.24045190    -0.94620
O2975       O  0.75373476  0.26065931  0.23451969    -0.93050
O2976       O  0.79488928  0.34486903  0.23998518    -0.93410
O2977       O  0.83886943  0.34597463  0.24769542    -0.92190
C2978       C  0.77203600  0.25791279  0.22385255     1.16870
H2979       H  0.74518664  0.30614502  0.29844698     0.32810
H2980       H  0.82996157  0.29944267  0.30406782     0.43670
H2981       H  0.73984757  0.21450474  0.29673376     0.37190
H2982       H  0.74146900  0.23250891  0.40997389     0.33670
H2983       H  0.83767740  0.37215480  0.28901761     0.25460
H2984       H  0.80396283  0.24110420  0.42660914     0.31400
H2985       H  0.72585713  0.16122063  0.41469289     0.37310
H2986       H  0.80508609  0.36414357  0.23707772     0.31770
H2987       H  0.71559103  0.28016561  0.23728904     0.30640
H2988       H  0.69660330  0.22711583  0.26027174     0.32320
H2989       H  0.68940374  0.15528721  0.36736548     0.31290
H2990       H  0.83806056  0.33254442  0.23925102     0.35290
H2991       H  0.83198463  0.28988196  0.23021347     0.28020
H2992       H  0.70230871  0.26561739  0.41981198     0.32260
H2993       H  0.68533351  0.16440460  0.41964056     0.35110
H2994       H  0.73250563  0.30409542  0.24768563     0.27720
H2995       H  0.84736763  0.28855042  0.25539030     0.40590
H2996       H  0.84047101  0.31872505  0.35487340     0.30640
H2997       H  0.82724906  0.35199645  0.32568357     0.38260
H2998       H  0.69693587  0.17650688  0.33220231     0.30110
H2999       H  0.77354408  0.22661295  0.43483858     0.30170
H3000       H  0.70424277  0.24020437  0.43087282     0.30440
Zr3001     Zr  0.55326883  0.07214687  0.01740895     2.17510
O3002       O  0.54514931  0.08653230  0.06025305    -0.51920
O3003       O  0.59850136  0.10921793  0.00681451    -0.75120
O3004       O  0.54872915  0.04585256  0.07299113    -0.81910
O3005       O  0.53991618  0.11706934  0.95458163    -0.83650
O3006       O  0.54041569  0.00445770  0.07957517    -0.79280
O3007       O  0.54214579  0.10579036  0.00663792    -0.90910
O3008       O  0.62483900  0.11035556  0.96632670    -0.76870
O3009       O  0.57660138  0.05225403  0.00817425    -0.86360
O3010       O  0.57479969  0.09416812  0.96010226    -0.86050
O3011       O  0.52009370  0.02452355  0.03484724    -0.72810
O3012       O  0.51910475  0.06348311  0.99140887    -0.84950
Zr3013     Zr  0.53230265  0.01770480  0.94048286     2.26420
Zr3014     Zr  0.54378776  0.00475590  0.02441206     2.06270
Zr3015     Zr  0.54097335  0.08482987  0.93406199     2.10050
Zr3016     Zr  0.59757026  0.07384443  0.95062040     1.78760
O3017       O  0.50655573  0.09114899  0.92073178    -0.93750
O3018       O  0.62769604  0.06310248  0.97148732    -0.41560
O3019       O  0.56453187  0.06529462  0.92301627    -0.78190
O3020       O  0.56613479  0.02642162  0.96692967    -0.96880
O3021       O  0.51050287  0.99620174  0.99756316    -0.90180
O3022       O  0.50900412  0.03755816  0.95004006    -0.93020
C3023       C  0.62088350  0.11971147  0.98677977     1.00730
C3024       C  0.53968279  0.12033333  0.98179860     1.13660
C3025       C  0.54283719  0.02214724  0.09092178     1.04440
O3026       O  0.58026124  0.00260673  0.03783505    -0.95180
O3027       O  0.54288803  0.47085920  0.00550829    -0.90920
O3028       O  0.53309607  0.47699365  0.95728347    -0.84070
C3029       C  0.53820229  0.46432864  0.98086306     1.11080
O3030       O  0.96577939  0.02450367  0.04678294    -0.97150
Zr3031     Zr  0.98743116  0.01613239  0.00709729     1.88940
O3032       O  0.98771203  0.48059604  0.94998932    -0.73800
O3033       O  0.51053047  0.45834130  0.06233088    -0.53060
O3034       O  0.96148356  0.47545206  0.05759136    -0.97740
O3035       O  0.95569846  0.02528409  0.98850920    -0.54960
O3036       O  0.96133500  0.47972689  0.99042809    -0.74320
C3037       C  0.96541491  0.47040970  0.96997173     0.98030
O3038       O  0.55651730  0.01569848  0.89585737    -0.63140
O3039       O  0.57596679  0.12829384  0.89132145    -0.57940
O3040       O  0.52895889  0.03910086  0.88717053    -0.94620
O3041       O  0.53586545  0.07984728  0.88266396    -0.93050
O3042       O  0.62356927  0.11332606  0.89900979    -0.93410
O3043       O  0.62183608  0.06748969  0.91138359    -0.92190
C3044       C  0.53167771  0.06179166  0.87114994     1.16870
H3045       H  0.58631844  0.11359913  0.95295866     0.32810
H3046       H  0.57546442  0.01867879  0.96147738     0.43670
H3047       H  0.49660980  0.03473469  0.93754939     0.37190
H3048       H  0.51035751  0.01649889  0.05761987     0.33670
H3049       H  0.64534115  0.07966644  0.95902428     0.25460
H3050       H  0.51862011  0.45397964  0.07925739     0.31400
H3051       H  0.94356032  0.46608202  0.05544929     0.37310
H3052       H  0.64165706  0.12241538  0.90068419     0.31770
H3053       H  0.56686341  0.13465305  0.87777009     0.30640
H3054       H  0.51591173  0.10932381  0.90263363     0.32320
H3055       H  0.93850604  0.00788586  0.00012841     0.31290
H3056       H  0.60833141  0.05434386  0.90437544     0.35290
H3057       H  0.57093755  0.03488415  0.88317051     0.28020
H3058       H  0.55946406  0.09047965  0.07058407     0.32260
H3059       H  0.94697089  0.00983131  0.05386485     0.35110
H3060       H  0.58298723  0.14083213  0.90259611     0.27720
H3061       H  0.56571880  0.00730661  0.90534639     0.40590
H3062       H  0.58867367  0.01655723  0.04693595     0.30640
H3063       H  0.62523476  0.06248875  0.99402137     0.38260
H3064       H  0.95849379  0.02757655  0.96531506     0.30110
H3065       H  0.49674680  0.45951996  0.07361129     0.30170
H3066       H  0.52886833  0.07085450  0.07744278     0.30440
Zr3067     Zr  0.55612778  0.32458116  0.01368163     2.17510
O3068       O  0.54288739  0.33780727  0.05483597    -0.51920
O3069       O  0.60206117  0.35945249  0.00420892    -0.75120
O3070       O  0.55432790  0.30082167  0.06875270    -0.81910
O3071       O  0.54379443  0.37002648  0.94893575    -0.83650
O3072       O  0.54581121  0.25919313  0.07626033    -0.79280
O3073       O  0.55098974  0.36250087  0.99871898    -0.90910
O3074       O  0.62652456  0.36176098  0.96041071    -0.76870
O3075       O  0.57846943  0.30366530  0.00487761    -0.86360
O3076       O  0.57633616  0.34497419  0.95621860    -0.86050
O3077       O  0.52236246  0.27691266  0.03340947    -0.72810
O3078       O  0.52108204  0.31526315  0.98921186    -0.84950
Zr3079     Zr  0.53133922  0.26684074  0.94127793     2.26420
Zr3080     Zr  0.54503369  0.25614434  0.02327792     2.06270
Zr3081     Zr  0.54163425  0.33507856  0.93165697     2.10050
Zr3082     Zr  0.59830651  0.32380587  0.94721585     1.78760
O3083       O  0.50592665  0.33980035  0.92058776    -0.93750
O3084       O  0.62845428  0.31322993  0.96835161    -0.41560
O3085       O  0.56414605  0.31445168  0.92148145    -0.78190
O3086       O  0.56619280  0.27613609  0.96585774    -0.96880
O3087       O  0.51076775  0.24693323  0.99837348    -0.90180
O3088       O  0.50895405  0.28771979  0.94998364    -0.93020
C3089       C  0.62373433  0.37033255  0.98238167     1.00730
C3090       C  0.54714146  0.37583142  0.97424706     1.13660
C3091       C  0.54919323  0.27748096  0.08688494     1.04440
O3092       O  0.58082987  0.25197054  0.03538545    -0.95180
O3093       O  0.54033086  0.21991856  0.00656839    -0.90920
O3094       O  0.52931320  0.22479311  0.95927622    -0.84070
C3095       C  0.53416585  0.21213934  0.98309451     1.11080
O3096       O  0.96899616  0.27823503  0.04636936    -0.97150
Zr3097     Zr  0.98856360  0.26775308  0.00725441     1.88940
O3098       O  0.98641753  0.22952530  0.95238721    -0.73800
O3099       O  0.51117230  0.21106871  0.06385423    -0.53060
O3100       O  0.96264724  0.22823492  0.05891684    -0.97740
O3101       O  0.95701942  0.27712937  0.98845394    -0.54960
O3102       O  0.96127090  0.22992744  0.99284787    -0.74320
C3103       C  0.96446654  0.21973336  0.97292452     0.98030
O3104       O  0.55742371  0.26534367  0.89818661    -0.63140
O3105       O  0.57517548  0.37757513  0.88630715    -0.57940
O3106       O  0.52648832  0.28610334  0.88869285    -0.94620
O3107       O  0.53629060  0.32834707  0.88123382    -0.93050
O3108       O  0.62421973  0.36228782  0.89470643    -0.93410
O3109       O  0.62059380  0.31636243  0.90703139    -0.92190
C3110       C  0.53058072  0.30914756  0.87130331     1.16870
H3111       H  0.58815067  0.36442239  0.94852860     0.32810
H3112       H  0.57475907  0.26756619  0.96087645     0.43670
H3113       H  0.49618980  0.28456632  0.93802041     0.37190
H3114       H  0.51358928  0.26968612  0.05642564     0.33670
H3115       H  0.64607671  0.32888498  0.95404935     0.25460
H3116       H  0.51989882  0.20642505  0.07969027     0.31400
H3117       H  0.94455180  0.21904039  0.05728786     0.37310
H3118       H  0.64240575  0.37138050  0.89604764     0.31770
H3119       H  0.56554146  0.38525026  0.87639041     0.30640
H3120       H  0.51422980  0.35634846  0.90018975     0.32320
H3121       H  0.93971080  0.26126296  0.00333222     0.31290
H3122       H  0.61488420  0.29713934  0.91737623     0.35290
H3123       H  0.57222589  0.28452818  0.88652448     0.28020
H3124       H  0.55700799  0.34364903  0.06546490     0.32260
H3125       H  0.95004140  0.26390525  0.05434771     0.35110
H3126       H  0.58563578  0.38982045  0.89664333     0.27720
H3127       H  0.56584273  0.25648992  0.90907507     0.40590
H3128       H  0.59172589  0.26761164  0.04103490     0.30640
H3129       H  0.62754868  0.31491626  0.98973272     0.38260
H3130       H  0.95719560  0.27546662  0.96708627     0.30110
H3131       H  0.49894840  0.21374676  0.07587300     0.30170
H3132       H  0.52746550  0.32091972  0.07195134     0.30440
Zr3133     Zr  0.80557958  0.07357745  0.01552034     2.17510
O3134       O  0.79200150  0.08731037  0.05581746    -0.51920
O3135       O  0.85144699  0.10831699  0.00641947    -0.75120
O3136       O  0.80133025  0.04867006  0.07174446    -0.81910
O3137       O  0.79555828  0.12048135  0.94998842    -0.83650
O3138       O  0.79002515  0.00605346  0.07888967    -0.79280
O3139       O  0.80265575  0.11295505  0.99995172    -0.90910
O3140       O  0.87702730  0.10832260  0.96615465    -0.76870
O3141       O  0.82742079  0.05196209  0.00750246    -0.86360
O3142       O  0.82713029  0.09430799  0.95837257    -0.86050
O3143       O  0.77114366  0.02628425  0.03342912    -0.72810
O3144       O  0.77158706  0.06549384  0.98923729    -0.84950
Zr3145     Zr  0.78188662  0.01737824  0.93991699     2.26420
Zr3146     Zr  0.79334607  0.00483468  0.02428037     2.06270
Zr3147     Zr  0.79358050  0.08592662  0.93208745     2.10050
Zr3148     Zr  0.84843526  0.07241998  0.95002981     1.78760
O3149       O  0.75913577  0.09239452  0.91933910    -0.93750
O3150       O  0.87690469  0.05911243  0.97122637    -0.41560
O3151       O  0.81560295  0.06470042  0.92203904    -0.78190
O3152       O  0.81555624  0.02533776  0.96678143    -0.96880
O3153       O  0.76028831  0.99688025  0.99705385    -0.90180
O3154       O  0.76021751  0.03895615  0.94861086    -0.93020
C3155       C  0.87368715  0.11788198  0.98672386     1.00730
C3156       C  0.79883844  0.12618521  0.97534202     1.13660
C3157       C  0.79377377  0.02432688  0.08989837     1.04440
O3158       O  0.82895636  0.00136845  0.03874322    -0.95180
O3159       O  0.79114538  0.46990185  0.00643134    -0.90920
O3160       O  0.78196704  0.47612328  0.95770293    -0.84070
C3161       C  0.78645060  0.46319736  0.98188173     1.11080
O3162       O  0.71833727  0.03152334  0.03996083    -0.97150
Zr3163     Zr  0.73855126  0.01826067  0.00560514     1.88940
O3164       O  0.73648590  0.48156808  0.94962145    -0.73800
O3165       O  0.75943161  0.45906301  0.06325063    -0.53060
O3166       O  0.71233794  0.48084837  0.05897866    -0.97740
O3167       O  0.70661299  0.02508898  0.98357255    -0.54960
O3168       O  0.71211405  0.47849842  0.99427077    -0.74320
C3169       C  0.71503980  0.47000097  0.97222636     0.98030
O3170       O  0.80294653  0.01226881  0.89558375    -0.63140
O3171       O  0.82878750  0.12837055  0.88804182    -0.57940
O3172       O  0.77899008  0.03916241  0.88625951    -0.94620
O3173       O  0.78823516  0.08093555  0.88107659    -0.93050
O3174       O  0.87605784  0.11227215  0.89909649    -0.93410
O3175       O  0.87039428  0.06431413  0.91044334    -0.92190
C3176       C  0.78277577  0.06238440  0.87015669     1.16870
H3177       H  0.83936351  0.11366214  0.95103809     0.32810
H3178       H  0.82435263  0.01698085  0.96176663     0.43670
H3179       H  0.74795082  0.03662721  0.93599016     0.37190
H3180       H  0.76153994  0.01891739  0.05612291     0.33670
H3181       H  0.89487202  0.07452961  0.95774052     0.25460
H3182       H  0.76770240  0.45449185  0.07980814     0.31400
H3183       H  0.69437772  0.47094106  0.05709439     0.37310
H3184       H  0.89412280  0.11964657  0.90069238     0.31770
H3185       H  0.81984144  0.13622342  0.87645594     0.30640
H3186       H  0.76830464  0.10978322  0.89992578     0.32320
H3187       H  0.68946797  0.01034951  0.99988776     0.31290
H3188       H  0.85741251  0.05632423  0.89899574     0.35290
H3189       H  0.81520602  0.03094843  0.87891097     0.28020
H3190       H  0.80547997  0.09229317  0.06750558     0.32260
H3191       H  0.69960146  0.01655522  0.04930445     0.35110
H3192       H  0.83824627  0.14052537  0.89899504     0.27720
H3193       H  0.81476022  0.00718309  0.90400761     0.40590
H3194       H  0.83753232  0.01523534  0.04791920     0.30640
H3195       H  0.87567914  0.05981670  0.99314322     0.38260
H3196       H  0.70595672  0.02021401  0.96431946     0.30110
H3197       H  0.74638050  0.46103713  0.07477918     0.30170
H3198       H  0.77591017  0.07067727  0.07226549     0.30440
Zr3199     Zr  0.80666586  0.32496841  0.01425005     2.17510
O3200       O  0.79393223  0.33880892  0.05502897    -0.51920
O3201       O  0.85231733  0.36120956  0.00235401    -0.75120
O3202       O  0.80630708  0.30266158  0.06923880    -0.81910
O3203       O  0.79129612  0.36801586  0.95054175    -0.83650
O3204       O  0.79696518  0.26048152  0.07724300    -0.79280
O3205       O  0.80000639  0.36189320  0.99943588    -0.90910
O3206       O  0.87747604  0.36063026  0.96219750    -0.76870
O3207       O  0.82994767  0.30500904  0.00498045    -0.86360
O3208       O  0.82617596  0.34485528  0.95667591    -0.86050
O3209       O  0.77394830  0.27700783  0.03464159    -0.72810
O3210       O  0.77076829  0.31388777  0.99120645    -0.84950
Zr3211     Zr  0.78184117  0.26519630  0.94313788     2.26420
Zr3212     Zr  0.79754234  0.25715244  0.02428412     2.06270
Zr3213     Zr  0.79062492  0.33332329  0.93358262     2.10050
Zr3214     Zr  0.84870324  0.32433329  0.94712551     1.78760
O3215       O  0.75433998  0.33688235  0.92244616    -0.93750
O3216       O  0.87946267  0.31324580  0.96483136    -0.41560
O3217       O  0.81372009  0.31328062  0.92269797    -0.78190
O3218       O  0.81760207  0.27663256  0.96642661    -0.96880
O3219       O  0.76216116  0.24563846  0.00064396    -0.90180
O3220       O  0.75893454  0.28553108  0.95250250    -0.93020
C3221       C  0.87430004  0.37054585  0.98234559     1.00730
C3222       C  0.79513635  0.37441767  0.97541010     1.13660
C3223       C  0.80074106  0.27915197  0.08734676     1.04440
O3224       O  0.83443918  0.25583249  0.03750671    -0.95180
O3225       O  0.79825546  0.22319659  0.00718307    -0.90920
O3226       O  0.78523281  0.22580136  0.96101064    -0.84070
C3227       C  0.79270292  0.21531835  0.98369653     1.11080
O3228       O  0.71885659  0.27386368  0.05141908    -0.97150
Zr3229     Zr  0.73937967  0.26602886  0.00989729     1.88940
O3230       O  0.73637313  0.22818321  0.95541544    -0.73800
O3231       O  0.76489984  0.21207200  0.06597597    -0.53060
O3232       O  0.71526054  0.22564844  0.06084849    -0.97740
O3233       O  0.70743129  0.27580271  0.99365064    -0.54960
O3234       O  0.71107624  0.22939216  0.99466769    -0.74320
C3235       C  0.71425045  0.21887601  0.97522147     0.98030
O3236       O  0.80265916  0.26019472  0.89841349    -0.63140
O3237       O  0.82372258  0.37590469  0.88800539    -0.57940
O3238       O  0.77700525  0.28476161  0.89027042    -0.94620
O3239       O  0.78499860  0.32609882  0.88374406    -0.93050
O3240       O  0.87350244  0.36406589  0.89561920    -0.93410
O3241       O  0.87053904  0.31753568  0.90575696    -0.92190
C3242       C  0.77997790  0.30732961  0.87328449     1.16870
H3243       H  0.83781144  0.36435846  0.94857985     0.32810
H3244       H  0.82710154  0.26909772  0.96082575     0.43670
H3245       H  0.74583293  0.28188123  0.94102151     0.37190
H3246       H  0.76526727  0.26993038  0.05765104     0.33670
H3247       H  0.89698685  0.32984845  0.95194549     0.25460
H3248       H  0.77464169  0.20770180  0.08037470     0.31400
H3249       H  0.69695675  0.21597401  0.06002282     0.37310
H3250       H  0.89193869  0.37275133  0.89600353     0.31770
H3251       H  0.81365278  0.38212649  0.87647244     0.30640
H3252       H  0.76250384  0.35376413  0.90251468     0.32320
H3253       H  0.69033426  0.25814961  0.00410275     0.31290
H3254       H  0.85637838  0.30609629  0.89783861     0.35290
H3255       H  0.81381145  0.27867464  0.88087473     0.28020
H3256       H  0.80834764  0.34516318  0.06512490     0.32260
H3257       H  0.69994500  0.25949220  0.05851678     0.35110
H3258       H  0.83265509  0.38898299  0.89809724     0.27720
H3259       H  0.81557271  0.25655736  0.90592125     0.40590
H3260       H  0.84410859  0.27149536  0.04361532     0.30640
H3261       H  0.87776539  0.31230305  0.98751476     0.38260
H3262       H  0.71060792  0.27977590  0.96995545     0.30110
H3263       H  0.75345088  0.21474923  0.07949267     0.30170
H3264       H  0.77878230  0.32199676  0.07258748     0.30440
Zr3265     Zr  0.49808387  0.08155722  0.59504196     2.17510
O3266       O  0.98818629  0.10512932  0.54999641    -0.51920
O3267       O  0.96094342  0.03520286  0.61047008    -0.75120
O3268       O  0.50496542  0.07081676  0.54809828    -0.81910
O3269       O  0.96466820  0.09524980  0.65623964    -0.83650
O3270       O  0.54352749  0.07401930  0.54240196    -0.79280
O3271       O  0.96321381  0.08751168  0.60948056    -0.90910
O3272       O  0.96916517  0.00751175  0.64644262    -0.76870
O3273       O  0.51774632  0.05651880  0.60648949    -0.86360
O3274       O  0.98487779  0.05968338  0.65327680    -0.86050
O3275       O  0.54435502  0.11481224  0.57059806    -0.72810
O3276       O  0.51415706  0.11712391  0.61507525    -0.84950
Zr3277     Zr  0.56678018  0.10158149  0.66143725     2.26420
Zr3278     Zr  0.56377043  0.08916407  0.58314891     2.06270
Zr3279     Zr  0.50132863  0.09500680  0.67337753     2.10050
Zr3280     Zr  0.50486535  0.03482069  0.66437168     1.78760
O3281       O  0.50621563  0.13483857  0.67983914    -0.93750
O3282       O  0.51405942  0.00292303  0.65497769    -0.41560
O3283       O  0.52071937  0.06941941  0.68508377    -0.78190
O3284       O  0.55121361  0.06604272  0.64155885    -0.96880
O3285       O  0.58035917  0.12425628  0.60353592    -0.90180
O3286       O  0.54768362  0.12735654  0.65102941    -0.93020
C3287       C  0.95576360  0.01173548  0.62821468     1.00730
C3288       C  0.95472546  0.09227806  0.63248957     1.13660
C3289       C  0.52257138  0.06871957  0.53388888     1.04440
O3290       O  0.57283884  0.05845174  0.56986128    -0.95180
O3291       O  0.60220900  0.09142997  0.59716895    -0.90920
O3292       O  0.60347179  0.09903403  0.64365323    -0.84070
C3293       C  0.61266939  0.09507239  0.62031776     1.11080
O3294       O  0.54743114  0.17232042  0.55176933    -0.97150
Zr3295     Zr  0.56057409  0.14922403  0.59280448     1.88940
O3296       O  0.60214831  0.14741328  0.64982495    -0.73800
O3297       O  0.59729661  0.12715264  0.53348760    -0.53060
O3298       O  0.59525827  0.17552235  0.54101856    -0.97740
O3299       O  0.55608120  0.18304260  0.60506119    -0.54960
O3300       O  0.60018812  0.17610972  0.60648891    -0.74320
C3301       C  0.61120406  0.17102052  0.62807067     0.98030
O3302       O  0.57996440  0.08227631  0.70621707    -0.63140
O3303       O  0.96268236  0.06452637  0.72091481    -0.57940
O3304       O  0.55208828  0.09701701  0.71631573    -0.94620
O3305       O  0.51140344  0.08925760  0.72584446    -0.93050
O3306       O  0.96692146  0.00726362  0.71274674    -0.93410
O3307       O  0.51310074  0.01138325  0.71147497    -0.92190
C3308       C  0.53110783  0.09096734  0.73525454     1.16870
H3309       H  0.96605479  0.04780563  0.66212964     0.32810
H3310       H  0.55931515  0.05606731  0.64735726     0.43670
H3311       H  0.55375435  0.14018938  0.66131273     0.37190
H3312       H  0.54810063  0.12320917  0.54716593     0.33670
H3313       H  0.49741802  0.98492824  0.66647819     0.25460
H3314       H  0.60959766  0.12194394  0.52839444     0.31400
H3315       H  0.60586312  0.19406113  0.54057677     0.37310
H3316       H  0.95875383  0.98848028  0.71398426     0.31770
H3317       H  0.95704165  0.07611201  0.72506249     0.30640
H3318       H  0.99932290  0.12890276  0.70372178     0.32320
H3319       H  0.57291037  0.20055074  0.59212496     0.31290
H3320       H  0.53231215  0.02261107  0.70723750     0.35290
H3321       H  0.57913472  0.06661612  0.70333873     0.28020
H3322       H  0.97419108  0.09065809  0.54502785     0.32260
H3323       H  0.56244512  0.19150176  0.54121279     0.35110
H3324       H  0.94895096  0.05239921  0.71311894     0.27720
H3325       H  0.59877797  0.09585177  0.70202620     0.40590
H3326       H  0.56178447  0.04101860  0.58917852     0.30640
H3327       H  0.51592953  0.00671348  0.63142723     0.38260
H3328       H  0.55625175  0.17965065  0.62807509     0.30110
H3329       H  0.58847439  0.12614567  0.51609015     0.30170
H3330       H  0.50379254  0.11490107  0.53083969     0.30440
Zr3331     Zr  0.50579758  0.32688408  0.59269058     2.17510
O3332       O  0.50052214  0.35249531  0.54418259    -0.51920
O3333       O  0.96776024  0.28228992  0.60546056    -0.75120
O3334       O  0.51536786  0.31687923  0.54670222    -0.81910
O3335       O  0.96897684  0.33810131  0.65218235    -0.83650
O3336       O  0.55314939  0.31855090  0.54392909    -0.79280
O3337       O  0.96974939  0.33161042  0.60467494    -0.90910
O3338       O  0.96925708  0.25246433  0.64794894    -0.76870
O3339       O  0.52371463  0.30025338  0.60666367    -0.86360
O3340       O  0.98966540  0.30418666  0.65081914    -0.86050
O3341       O  0.55228372  0.35847145  0.57114183    -0.72810
O3342       O  0.52004347  0.36190211  0.61318875    -0.84950
Zr3343     Zr  0.56916637  0.34377934  0.66521743     2.26420
Zr3344     Zr  0.57019599  0.33162480  0.58713465     2.06270
Zr3345     Zr  0.50499289  0.33896410  0.67154866     2.10050
Zr3346     Zr  0.50766349  0.27764517  0.66444580     1.78760
O3347       O  0.50963598  0.37921080  0.67630035    -0.93750
O3348       O  0.51320982  0.24480273  0.65121008    -0.41560
O3349       O  0.52278664  0.31210599  0.68583406    -0.78190
O3350       O  0.55443628  0.30831298  0.64523765    -0.96880
O3351       O  0.58516295  0.36657486  0.60734949    -0.90180
O3352       O  0.55123399  0.37043641  0.65163300    -0.93020
C3353       C  0.95842100  0.25837733  0.62660945     1.00730
C3354       C  0.95998270  0.33536982  0.62777306     1.13660
C3355       C  0.53322754  0.31461629  0.53366491     1.04440
O3356       O  0.57768256  0.29764712  0.58161969    -0.95180
O3357       O  0.60782834  0.33526320  0.60533763    -0.90920
O3358       O  0.60871917  0.34549237  0.65013167    -0.84070
C3359       C  0.61821941  0.34069227  0.62807618     1.11080
O3360       O  0.55632361  0.41546180  0.54814125    -0.97150
Zr3361     Zr  0.56654170  0.39246754  0.59337313     1.88940
O3362       O  0.60409119  0.38955559  0.65633338    -0.73800
O3363       O  0.60639574  0.36690401  0.53813911    -0.53060
O3364       O  0.60441771  0.41885513  0.54501101    -0.97740
O3365       O  0.56142783  0.42701529  0.60220867    -0.54960
O3366       O  0.60298947  0.41805148  0.61168440    -0.74320
C3367       C  0.61290759  0.41325845  0.63467565     0.98030
O3368       O  0.57324844  0.31331678  0.70971199    -0.63140
O3369       O  0.96498593  0.30976995  0.71732278    -0.57940
O3370       O  0.55498483  0.34311680  0.71777382    -0.94620
O3371       O  0.51352281  0.33342164  0.72474621    -0.93050
O3372       O  0.97173192  0.25097420  0.71498699    -0.93410
O3373       O  0.51554573  0.25181509  0.70976552    -0.92190
C3374       C  0.53311105  0.33633272  0.73531197     1.16870
H3375       H  0.97077231  0.29295397  0.65844091     0.32810
H3376       H  0.56224488  0.29817561  0.65206909     0.43670
H3377       H  0.55672626  0.38328271  0.66190626     0.37190
H3378       H  0.55717534  0.36697701  0.54755480     0.33670
H3379       H  0.49721738  0.22692848  0.66551927     0.25460
H3380       H  0.61298810  0.35731633  0.53009179     0.31400
H3381       H  0.61416273  0.43740369  0.54471303     0.37310
H3382       H  0.96173533  0.23242596  0.71531624     0.31770
H3383       H  0.95836200  0.32131273  0.71828849     0.30640
H3384       H  0.00261343  0.37369019  0.70004603     0.32320
H3385       H  0.57869962  0.44427555  0.59036384     0.31290
H3386       H  0.53376048  0.25724521  0.70145826     0.35290
H3387       H  0.55505345  0.29995229  0.72400401     0.28020
H3388       H  0.98870522  0.33886798  0.53625601     0.32260
H3389       H  0.57135754  0.43464661  0.53836536     0.35110
H3390       H  0.95225677  0.29628474  0.70994617     0.27720
H3391       H  0.57657769  0.30243926  0.69991940     0.40590
H3392       H  0.56052465  0.28020186  0.59311236     0.30640
H3393       H  0.51133293  0.24740501  0.62889048     0.38260
H3394       H  0.55995289  0.42352379  0.62563346     0.30110
H3395       H  0.59811955  0.37173588  0.52175984     0.30170
H3396       H  0.51774724  0.36334606  0.52738794     0.30440
Zr3397     Zr  0.74877724  0.07995225  0.59451332     2.17510
O3398       O  0.73901514  0.10277305  0.54856100    -0.51920
O3399       O  0.71209112  0.03373275  0.60909533    -0.75120
O3400       O  0.75678550  0.06950143  0.54782440    -0.81910
O3401       O  0.71396543  0.09281018  0.65505624    -0.83650
O3402       O  0.79675118  0.07544038  0.54049107    -0.79280
O3403       O  0.71318942  0.08498427  0.60857474    -0.90910
O3404       O  0.71783334  0.00594177  0.64861857    -0.76870
O3405       O  0.76891449  0.05542237  0.60615777    -0.86360
O3406       O  0.73488482  0.05768130  0.65271385    -0.86050
O3407       O  0.79494159  0.11371918  0.57065561    -0.72810
O3408       O  0.76364275  0.11514432  0.61507527    -0.84950
Zr3409     Zr  0.81581543  0.10010649  0.66255795     2.26420
Zr3410     Zr  0.81495389  0.08866493  0.58345731     2.06270
Zr3411     Zr  0.75023082  0.09258225  0.67343085     2.10050
Zr3412     Zr  0.75525833  0.03327296  0.66411547     1.78760
O3413       O  0.75460420  0.13184208  0.68108336    -0.93750
O3414       O  0.76293154  0.00113047  0.65245438    -0.41560
O3415       O  0.76986139  0.06729049  0.68582334    -0.78190
O3416       O  0.80154458  0.06518316  0.64184014    -0.96880
O3417       O  0.83002706  0.12316059  0.60465991    -0.90180
O3418       O  0.79637963  0.12549376  0.65151433    -0.93020
C3419       C  0.70525649  0.01017131  0.62898806     1.00730
C3420       C  0.70419300  0.08974327  0.63123048     1.13660
C3421       C  0.77542984  0.06926013  0.53263945     1.04440
O3422       O  0.82398222  0.05681386  0.57366971    -0.95180
O3423       O  0.85394886  0.09301866  0.59822398    -0.90920
O3424       O  0.85413167  0.10022596  0.64529376    -0.84070
C3425       C  0.86392269  0.09695776  0.62169246     1.11080
O3426       O  0.79616203  0.17052709  0.55296449    -0.97150
Zr3427     Zr  0.80997262  0.14775875  0.59333985     1.88940
O3428       O  0.85168416  0.14564501  0.65056449    -0.73800
O3429       O  0.84934725  0.12620271  0.53410183    -0.53060
O3430       O  0.84440095  0.17434425  0.54128839    -0.97740
O3431       O  0.80583204  0.18171473  0.60573987    -0.54960
O3432       O  0.84968793  0.17423404  0.60706325    -0.74320
C3433       C  0.86077461  0.16915264  0.62856223     0.98030
O3434       O  0.82515704  0.07540376  0.70749135    -0.63140
O3435       O  0.71040167  0.06239936  0.71945089    -0.57940
O3436       O  0.80357308  0.10177857  0.71433188    -0.94620
O3437       O  0.76047959  0.08578493  0.72597393    -0.93050
O3438       O  0.71901258  0.00592766  0.71439536    -0.93410
O3439       O  0.76497518  0.00951458  0.70915184    -0.92190
C3440       C  0.78145970  0.09162513  0.73457050     1.16870
H3441       H  0.71605582  0.04568258  0.66128982     0.32810
H3442       H  0.81000091  0.05559091  0.64769023     0.43670
H3443       H  0.80212516  0.13827497  0.66187802     0.37190
H3444       H  0.79882814  0.12222508  0.54721430     0.33670
H3445       H  0.74696790  0.98306408  0.66627417     0.25460
H3446       H  0.85813264  0.11849359  0.52573491     0.31400
H3447       H  0.85502506  0.19282729  0.54100472     0.37310
H3448       H  0.71043896  0.98710252  0.71567293     0.31770
H3449       H  0.70521923  0.07432315  0.72356239     0.30640
H3450       H  0.74676319  0.12524219  0.70489109     0.32320
H3451       H  0.82257511  0.19920887  0.59244632     0.31290
H3452       H  0.78408826  0.02147997  0.70505536     0.35290
H3453       H  0.80838721  0.06281924  0.72524887     0.28020
H3454       H  0.72624385  0.08819643  0.54256262     0.32260
H3455       H  0.81116771  0.18969261  0.54202282     0.35110
H3456       H  0.69682953  0.05105669  0.71078715     0.27720
H3457       H  0.82787512  0.06307118  0.70014620     0.40590
H3458       H  0.80869542  0.03871659  0.58879100     0.30640
H3459       H  0.76196077  0.00367667  0.62980107     0.38260
H3460       H  0.80640274  0.17852409  0.62860077     0.30110
H3461       H  0.84007026  0.12910180  0.51802993     0.30170
H3462       H  0.75524679  0.11354668  0.53004973     0.30440
Zr3463     Zr  0.75620258  0.32882034  0.59413064     2.17510
O3464       O  0.75273941  0.35701557  0.54617372    -0.51920
O3465       O  0.71774670  0.28445400  0.60664195    -0.75120
O3466       O  0.76417590  0.31879207  0.54782650    -0.81910
O3467       O  0.72208779  0.34311782  0.65204464    -0.83650
O3468       O  0.80142842  0.31943318  0.54469124    -0.79280
O3469       O  0.72060627  0.33385835  0.60655015    -0.90910
O3470       O  0.71936780  0.25435802  0.64865242    -0.76870
O3471       O  0.77341942  0.30149851  0.60761257    -0.86360
O3472       O  0.74035050  0.30607373  0.65217143    -0.86050
O3473       O  0.80268835  0.35983309  0.57212104    -0.72810
O3474       O  0.77146310  0.36391518  0.61440620    -0.84950
Zr3475     Zr  0.82082350  0.34497010  0.66583910     2.26420
Zr3476     Zr  0.81982812  0.33230957  0.58756649     2.06270
Zr3477     Zr  0.75668949  0.34094718  0.67258557     2.10050
Zr3478     Zr  0.75790739  0.27907500  0.66538442     1.78760
O3479       O  0.76255067  0.38095382  0.67957407    -0.93750
O3480       O  0.76259002  0.24570556  0.65234830    -0.41560
O3481       O  0.77422644  0.31362456  0.68665792    -0.78190
O3482       O  0.80470421  0.30921700  0.64600241    -0.96880
O3483       O  0.83620909  0.36749809  0.60780320    -0.90180
O3484       O  0.80320713  0.37205169  0.65260227    -0.93020
C3485       C  0.70845062  0.26041931  0.62748622     1.00730
C3486       C  0.71219437  0.33956133  0.62841724     1.13660
C3487       C  0.78139915  0.31589257  0.53468647     1.04440
O3488       O  0.82649110  0.29828708  0.58031476    -0.95180
O3489       O  0.85705390  0.33400311  0.60430978    -0.90920
O3490       O  0.85715853  0.34080807  0.65159656    -0.84070
C3491       C  0.86657660  0.33692205  0.62831316     1.11080
O3492       O  0.81008569  0.41758341  0.54686457    -0.97150
Zr3493     Zr  0.81798731  0.39391231  0.59425540     1.88940
O3494       O  0.85626891  0.39119759  0.65530202    -0.73800
O3495       O  0.85575148  0.36788069  0.53843148    -0.53060
O3496       O  0.85717285  0.42034675  0.54760697    -0.97740
O3497       O  0.81055503  0.42732467  0.60232709    -0.54960
O3498       O  0.85347950  0.42021957  0.61315379    -0.74320
C3499       C  0.86401378  0.41505234  0.63511771     0.98030
O3500       O  0.83314129  0.32339492  0.70969750    -0.63140
O3501       O  0.71585815  0.31187236  0.71710561    -0.57940
O3502       O  0.80451434  0.34146231  0.71975703    -0.94620
O3503       O  0.76367524  0.33330855  0.72630683    -0.93050
O3504       O  0.72232883  0.25296647  0.71621329    -0.93410
O3505       O  0.76647227  0.25292333  0.70935331    -0.92190
C3506       C  0.78286506  0.33523972  0.73705410     1.16870
H3507       H  0.72145792  0.29507720  0.65990889     0.32810
H3508       H  0.81204764  0.29860000  0.65292330     0.43670
H3509       H  0.80887469  0.38490604  0.66287085     0.37190
H3510       H  0.80747843  0.36833979  0.54854531     0.33670
H3511       H  0.74623212  0.22801741  0.66624349     0.25460
H3512       H  0.86429682  0.35920137  0.53222438     0.31400
H3513       H  0.86631196  0.43902975  0.54690021     0.37310
H3514       H  0.71204176  0.23438682  0.71669484     0.31770
H3515       H  0.71007792  0.32395197  0.71876241     0.30640
H3516       H  0.75460533  0.37461705  0.70328985     0.32320
H3517       H  0.82797011  0.44465544  0.59286241     0.31290
H3518       H  0.77935952  0.26650240  0.71648690     0.35290
H3519       H  0.84181452  0.33637076  0.72002825     0.28020
H3520       H  0.73915382  0.34416518  0.53895244     0.32260
H3521       H  0.82462054  0.43692682  0.53865499     0.35110
H3522       H  0.70300285  0.29953629  0.70862325     0.27720
H3523       H  0.81667760  0.30775791  0.72660525     0.40590
H3524       H  0.80973545  0.28076659  0.59341518     0.30640
H3525       H  0.76116857  0.24869576  0.62980295     0.38260
H3526       H  0.80664803  0.42257651  0.62621735     0.30110
H3527       H  0.84726561  0.37047031  0.52120378     0.30170
H3528       H  0.76929338  0.36605706  0.52877193     0.30440
C3529       C  0.93092492  0.21168575  0.62961293    -0.20890
C3530       C  0.93335934  0.23606378  0.62656396    -0.07460
C3531       C  0.91178243  0.23842396  0.62421426     0.13410
C3532       C  0.88837329  0.21628729  0.62467602    -0.20940
C3533       C  0.88592464  0.19185914  0.62786845    -0.07460
C3534       C  0.90754871  0.18956768  0.63013247     0.13400
C3535       C  0.90652002  0.16428646  0.63191823    -0.24290
H3536       H  0.94756010  0.21006502  0.63123536     0.14690
H3537       H  0.87171548  0.21786903  0.62309513     0.14720
C3538       C  0.91289505  0.26373121  0.62252274    -0.24240
H3539       H  0.92580748  0.16691231  0.63108315     0.04930
H3540       H  0.90074590  0.15932254  0.61085120     0.08150
H3541       H  0.89230852  0.14700507  0.65519859     0.08150
H3542       H  0.92729460  0.28108708  0.59938577     0.08140
H3543       H  0.91851422  0.26854770  0.64373429     0.08140
H3544       H  0.89367241  0.26121577  0.62312812     0.04910
C3545       C  0.68076127  0.46174311  0.63776834    -0.20890
C3546       C  0.68134888  0.48584067  0.62990263    -0.07460
C3547       C  0.65882076  0.48551149  0.62511936     0.13410
C3548       C  0.63656795  0.46119093  0.62791064    -0.20940
C3549       C  0.63610332  0.43719167  0.63554072    -0.07460
C3550       C  0.65847140  0.43744013  0.64069377     0.13400
C3551       C  0.65935299  0.41250617  0.64827967    -0.24290
H3552       H  0.69800648  0.46195169  0.64143661     0.14690
H3553       H  0.61932464  0.46089370  0.62401334     0.14720
C3554       C  0.65766173  0.01029754  0.61797187    -0.24240
H3555       H  0.67888451  0.41680923  0.64996525     0.04930
H3556       H  0.65495342  0.40467710  0.62874393     0.08150
H3557       H  0.64484569  0.39668856  0.67221152     0.08150
H3558       H  0.67176599  0.02631798  0.59387084     0.08140
H3559       H  0.66228905  0.01810132  0.63749319     0.08140
H3560       H  0.63793381  0.50570786  0.61693789     0.04910
C3561       C  0.91730603  0.32435250  0.65675962    -0.20890
C3562       C  0.93624469  0.33585554  0.62690408    -0.07460
C3563       C  0.93200857  0.34741201  0.59745588     0.13410
C3564       C  0.90907152  0.34729525  0.59886584    -0.20940
C3565       C  0.89024780  0.33609008  0.62881933    -0.07460
C3566       C  0.89445044  0.32428348  0.65819547     0.13400
C3567       C  0.87504642  0.31126063  0.69128006    -0.24290
H3568       H  0.92038435  0.31521674  0.67927140     0.14690
H3569       H  0.90597258  0.35638025  0.57635336     0.14720
C3570       C  0.95170603  0.36054434  0.56449332    -0.24240
H3571       H  0.88021635  0.30043146  0.71082721     0.04930
H3572       H  0.85521673  0.29624047  0.69109126     0.08150
H3573       H  0.87514617  0.32729333  0.69768202     0.08150
H3574       H  0.95300058  0.34493307  0.55858627     0.08140
H3575       H  0.97115593  0.37639786  0.56462241     0.08140
H3576       H  0.94604782  0.37038366  0.54460703     0.04910
C3577       C  0.65782224  0.34507743  0.59976534    -0.20890
C3578       C  0.64284104  0.34155485  0.62866380    -0.07460
C3579       C  0.65173542  0.33872674  0.65697190     0.13410
C3580       C  0.67461383  0.33881324  0.65550684    -0.20940
C3581       C  0.68909235  0.34145049  0.62692399    -0.07460
C3582       C  0.68070782  0.34514492  0.59834893     0.13400
C3583       C  0.69571250  0.34979599  0.56585078    -0.24290
H3584       H  0.65158385  0.34783386  0.57786048     0.14690
H3585       H  0.68081985  0.33597306  0.67742899     0.14720
C3586       C  0.63706442  0.33427487  0.68955862    -0.24240
H3587       H  0.68710221  0.35419804  0.54601103     0.04930
H3588       H  0.69532187  0.33136505  0.56741273     0.08150
H3589       H  0.71615344  0.36751771  0.55861392     0.08150
H3590       H  0.61759101  0.31507285  0.69847718     0.08140
H3591       H  0.63532247  0.35161086  0.68749236     0.08140
H3592       H  0.64712654  0.33236415  0.70855372     0.04910
C3593       C  0.91178696  0.44466423  0.62210480    -0.20890
C3594       C  0.88709297  0.43865292  0.63614353    -0.07460
C3595       C  0.88494805  0.45713636  0.64660893     0.13410
C3596       C  0.90777488  0.48145734  0.64272737    -0.20940
C3597       C  0.93248370  0.48747874  0.62864913    -0.07460
C3598       C  0.93460800  0.46898004  0.61816065     0.13400
C3599       C  0.96087045  0.47527013  0.60191011    -0.24290
H3600       H  0.91315287  0.43062559  0.61338773     0.14690
H3601       H  0.90639227  0.49558881  0.65121699     0.14720
C3602       C  0.85862001  0.45099102  0.66221732    -0.24240
H3603       H  0.95885371  0.45910578  0.59395232     0.04930
H3604       H  0.97279385  0.47701804  0.61921815     0.08150
H3605       H  0.97133963  0.49467649  0.57995105     0.08150
H3606       H  0.84799566  0.43168649  0.68432381     0.08140
H3607       H  0.84692172  0.44903840  0.64463397     0.08140
H3608       H  0.86051890  0.46730247  0.66976560     0.04910
C3609       C  0.68124649  0.21388725  0.62970769    -0.20890
C3610       C  0.68344310  0.23807543  0.62716283    -0.07460
C3611       C  0.66169833  0.24017397  0.62503153     0.13410
C3612       C  0.63842673  0.21804923  0.62508957    -0.20940
C3613       C  0.63622233  0.19380482  0.62778274    -0.07460
C3614       C  0.65798345  0.19175155  0.62998323     0.13400
C3615       C  0.65712195  0.16658071  0.63178180    -0.24290
H3616       H  0.69796102  0.21239505  0.63123134     0.14690
H3617       H  0.62168204  0.21948595  0.62361056     0.14720
C3618       C  0.66251377  0.26520270  0.62395129    -0.24240
H3619       H  0.67641296  0.16924838  0.63112427     0.04930
H3620       H  0.65142077  0.16154083  0.61072336     0.08150
H3621       H  0.64285891  0.14939116  0.65507577     0.08150
H3622       H  0.67694070  0.28275735  0.60101167     0.08140
H3623       H  0.66797314  0.26971904  0.64537701     0.08140
H3624       H  0.64324082  0.26256384  0.62457509     0.04910
C3625       C  0.93137420  0.10847670  0.59979666    -0.20890
C3626       C  0.93198771  0.09464655  0.63067842    -0.07460
C3627       C  0.91021362  0.08189672  0.65826214     0.13410
C3628       C  0.88847046  0.08308182  0.65420393    -0.20940
C3629       C  0.88766079  0.09652462  0.62331588    -0.07460
C3630       C  0.90957818  0.10971572  0.59578000     0.13400
C3631       C  0.91046145  0.12576217  0.56242015    -0.24290
H3632       H  0.94812281  0.11840615  0.57861722     0.14690
H3633       H  0.87169585  0.07298204  0.67538643     0.14720
C3634       C  0.90920873  0.06606929  0.69181189    -0.24240
H3635       H  0.92966448  0.13594105  0.54409415     0.04930
H3636       H  0.90724597  0.14167769  0.56367689     0.08150
H3637       H  0.89515042  0.11210755  0.55364648     0.08150
H3638       H  0.92461283  0.07990280  0.70029172     0.08140
H3639       H  0.91210576  0.04987003  0.69100622     0.08140
H3640       H  0.89009042  0.05623184  0.71013058     0.04910
C3641       C  0.66817230  0.08372318  0.60593473    -0.20890
C3642       C  0.68097802  0.09166634  0.62898143    -0.07460
C3643       C  0.67148005  0.10149772  0.64821858     0.13410
C3644       C  0.64956834  0.10246771  0.64427939    -0.20940
C3645       C  0.63664708  0.09437724  0.62138567    -0.07460
C3646       C  0.64642854  0.08499976  0.60175128     0.13400
C3647       C  0.63402013  0.07563773  0.57674853    -0.24290
H3648       H  0.67506047  0.07612854  0.59097560     0.14690
H3649       H  0.64239913  0.10954032  0.65969455     0.14720
C3650       C  0.68414209  0.11133941  0.67284467    -0.24240
H3651       H  0.64418005  0.06871007  0.56408383     0.04930
H3652       H  0.63496555  0.09259053  0.55768012     0.08150
H3653       H  0.61339530  0.05823891  0.58901792     0.08150
H3654       H  0.70499805  0.12816935  0.66053526     0.08140
H3655       H  0.68257785  0.09436510  0.69265032     0.08140
H3656       H  0.67454889  0.11919507  0.68459900     0.04910
C3657       C  0.77231934  0.30157029  0.79119752    -0.20890
C3658       C  0.77945694  0.32782231  0.77226147    -0.07460
C3659       C  0.78548147  0.34678265  0.78648946     0.13410
C3660       C  0.78470243  0.33914932  0.81958862    -0.20940
C3661       C  0.77831271  0.31294580  0.83891547    -0.07460
C3662       C  0.77155161  0.29370852  0.82431458     0.13400
C3663       C  0.76370389  0.26497174  0.84270982    -0.24290
H3664       H  0.76789924  0.28728459  0.77963563     0.14690
H3665       H  0.78980288  0.35417967  0.83003898     0.14720
C3666       C  0.79332835  0.37521216  0.76649798    -0.24240
H3667       H  0.75811010  0.25289698  0.82739498     0.04930
H3668       H  0.74653026  0.25454519  0.86446109     0.08150
H3669       H  0.78035569  0.26502488  0.85021043     0.08150
H3670       H  0.77725290  0.37449144  0.75654383     0.08140
H3671       H  0.81122818  0.38536478  0.74586267     0.08140
H3672       H  0.79750753  0.38763566  0.78136610     0.04910
C3673       C  0.77470174  0.40124307  0.96497410    -0.20890
C3674       C  0.79334029  0.39740424  0.97700438    -0.07460
C3675       C  0.80952890  0.41534991  0.99072897     0.13410
C3676       C  0.80633584  0.43604497  0.99243906    -0.20940
C3677       C  0.78767033  0.43985830  0.98052003    -0.07460
C3678       C  0.77158983  0.42206354  0.96657260     0.13400
C3679       C  0.75049782  0.42420831  0.95422045    -0.24290
H3680       H  0.76216741  0.38756411  0.95462902     0.14690
H3681       H  0.81899352  0.44980013  0.00262041     0.14720
C3682       C  0.83103586  0.41371263  0.00247351    -0.24240
H3683       H  0.73856452  0.40741521  0.94656827     0.04930
H3684       H  0.75937146  0.44351121  0.93254540     0.08150
H3685       H  0.73711603  0.42326093  0.97387049     0.08150
H3686       H  0.84411281  0.41450914  0.98265973     0.08140
H3687       H  0.82258604  0.39469180  0.02437518     0.08140
H3688       H  0.84320761  0.43082038  0.00953316     0.04910
C3689       C  0.77502194  0.17237753  0.97516850    -0.20890
C3690       C  0.79500890  0.19266973  0.98225408    -0.07460
C3691       C  0.81699405  0.19141367  0.98615141     0.13410
C3692       C  0.81787836  0.16959180  0.98363402    -0.20940
C3693       C  0.79753254  0.14921007  0.97684423    -0.07460
C3694       C  0.77570493  0.15054736  0.97292636     0.13400
C3695       C  0.75259268  0.12850298  0.96753097    -0.24290
H3696       H  0.75862875  0.17353711  0.97148125     0.14690
H3697       H  0.83466970  0.16858524  0.98659099     0.14720
C3698       C  0.84003845  0.21354826  0.99147087    -0.24240
H3699       H  0.73657410  0.13198890  0.96691111     0.04930
H3700       H  0.74466802  0.10855554  0.98769032     0.08150
H3701       H  0.75863846  0.12788231  0.94377434     0.08150
H3702       H  0.83398937  0.21427978  0.01517198     0.08140
H3703       H  0.84788220  0.23343296  0.97123378     0.08140
H3704       H  0.85609717  0.21010541  0.99209179     0.04910
C3705       C  0.80391355  0.08951052  0.77781502    -0.20890
C3706       C  0.78073718  0.08508297  0.76997943    -0.07460
C3707       C  0.75789995  0.07294947  0.79621019     0.13410
C3708       C  0.75892498  0.06524056  0.82881661    -0.20940
C3709       C  0.78194250  0.06909067  0.83596875    -0.07460
C3710       C  0.80475061  0.08171392  0.81019802     0.13400
C3711       C  0.83016162  0.08715238  0.81681843    -0.24290
H3712       H  0.82171545  0.09885260  0.75851917     0.14690
H3713       H  0.74166851  0.05614928  0.84891539     0.14720
C3714       C  0.73239414  0.06799428  0.79052161    -0.24240
H3715       H  0.84630678  0.09761254  0.79382599     0.04930
H3716       H  0.82775574  0.06770392  0.83104376     0.08150
H3717       H  0.83598659  0.10021455  0.83092540     0.08150
H3718       H  0.72480185  0.05321523  0.77880863     0.08140
H3719       H  0.73530936  0.08741629  0.77478190     0.08140
H3720       H  0.71717033  0.05939046  0.81381447     0.04910
C3721       C  0.94243352  0.17097024  0.98322489    -0.20890
C3722       C  0.94133472  0.19407565  0.97526438    -0.07460
C3723       C  0.91770025  0.19171149  0.97220523     0.13410
C3724       C  0.89567983  0.16625654  0.97742811    -0.20940
C3725       C  0.89675706  0.14315838  0.98533021    -0.07460
C3726       C  0.92040080  0.14550056  0.98831894     0.13400
C3727       C  0.92220941  0.12108435  0.99781138    -0.24290
H3728       H  0.96047209  0.17277786  0.98612656     0.14690
H3729       H  0.87766803  0.16448899  0.97444355     0.14720
C3730       C  0.91588202  0.21612696  0.96234560    -0.24240
H3731       H  0.94176909  0.12632397  0.00054408     0.04930
H3732       H  0.91890101  0.11265454  0.97872793     0.08150
H3733       H  0.90726337  0.10532109  0.02155373     0.08150
H3734       H  0.93096233  0.23186925  0.93868385     0.08140
H3735       H  0.91893219  0.22456021  0.98142017     0.08140
H3736       H  0.89640032  0.21088332  0.95928272     0.04910
C3737       C  0.65694896  0.41940831  0.95297727    -0.20890
C3738       C  0.64692992  0.39550024  0.98075238    -0.07460
C3739       C  0.65971916  0.39603562  0.00529294     0.13410
C3740       C  0.68212001  0.42069072  0.00169183    -0.20940
C3741       C  0.69208655  0.44461513  0.97393833    -0.07460
C3742       C  0.67933834  0.44403812  0.94935168     0.13400
C3743       C  0.68885764  0.46949711  0.91988060    -0.24290
H3744       H  0.64701585  0.41881065  0.93418705     0.14690
H3745       H  0.69204678  0.42130774  0.02048565     0.14720
C3746       C  0.65016965  0.37054564  0.03469570    -0.24240
H3747       H  0.67620400  0.46555122  0.90344103     0.04930
H3748       H  0.70904784  0.47786809  0.90562014     0.08150
H3749       H  0.68879992  0.48485470  0.92792619     0.08150
H3750       H  0.65026425  0.35523649  0.02657427     0.08140
H3751       H  0.62995250  0.36215110  0.04889411     0.08140
H3752       H  0.66278980  0.37445268  0.05117843     0.04910
C3753       C  0.52140901  0.33198332  0.82281659    -0.20890
C3754       C  0.52912560  0.31431831  0.83717322    -0.07460
C3755       C  0.53681632  0.30335700  0.81787211     0.13410
C3756       C  0.53691329  0.31058734  0.78523418    -0.20940
C3757       C  0.53002100  0.32870648  0.77068638    -0.07460
C3758       C  0.52168716  0.33924300  0.78973439     0.13400
C3759       C  0.51406619  0.35876203  0.77501458    -0.24290
H3760       H  0.51543351  0.34040620  0.83741761     0.14690
H3761       H  0.54291195  0.30224071  0.77068728     0.14720
C3762       C  0.54663672  0.28541963  0.83026727    -0.24240
H3763       H  0.50882491  0.36569819  0.79313640     0.04930
H3764       H  0.49683663  0.34874529  0.76626949     0.08150
H3765       H  0.53065203  0.37687738  0.75410380     0.08150
H3766       H  0.53103037  0.26613794  0.85071934     0.08140
H3767       H  0.56408710  0.29656019  0.83799974     0.08140
H3768       H  0.55274652  0.27987145  0.81104760     0.04910
C3769       C  0.89949496  0.42009547  0.96481041    -0.20890
C3770       C  0.89745358  0.39562861  0.98047782    -0.07460
C3771       C  0.91830302  0.39590459  0.99131758     0.13410
C3772       C  0.94070597  0.42084364  0.98671908    -0.20940
C3773       C  0.94274289  0.44532068  0.97103549    -0.07460
C3774       C  0.92195714  0.44502749  0.95999954     0.13400
C3775       C  0.92362457  0.47098145  0.94289091    -0.24290
H3776       H  0.88364127  0.41968421  0.95577976     0.14690
H3777       H  0.95638490  0.42122184  0.99616919     0.14720
C3778       C  0.91666965  0.36993961  0.00821609    -0.24240
H3779       H  0.90584043  0.46709518  0.93522144     0.04930
H3780       H  0.94083842  0.48433756  0.92069561     0.08150
H3781       H  0.92566882  0.48165373  0.95956967     0.08150
H3782       H  0.91448526  0.35930333  0.99145896     0.08140
H3783       H  0.89954281  0.35655514  0.03051484     0.08140
H3784       H  0.93453037  0.37381352  0.01567406     0.04910
C3785       C  0.66707593  0.19231404  0.97840387    -0.20890
C3786       C  0.69064544  0.19369926  0.97699394    -0.07460
C3787       C  0.69061488  0.17021516  0.98042869     0.13170
C3788       C  0.66734123  0.14616992  0.98473727    -0.20940
C3789       C  0.64387498  0.14480064  0.98591797    -0.07460
C3790       C  0.64375502  0.16825196  0.98239200     0.13400
C3791       C  0.61938090  0.16828009  0.98168073    -0.24290
H3792       H  0.66699356  0.21024140  0.97603226     0.14690
H3793       H  0.66745411  0.12826063  0.98703972     0.14720
C3794       C  0.71490116  0.17011960  0.98036385    -0.24240
H3795       H  0.62297438  0.18855813  0.97752226     0.04930
H3796       H  0.60422379  0.15362827  0.00548400     0.08150
H3797       H  0.61205743  0.16247095  0.96171705     0.08150
H3798       H  0.72294841  0.17649705  0.99967128     0.08140
H3799       H  0.72954660  0.18422446  0.95596076     0.08140
H3800       H  0.71096981  0.14963175  0.98518545     0.04910
C3801       C  0.55667300  0.43588966  0.99383866    -0.20890
C3802       C  0.53994485  0.44142089  0.97881439    -0.07460
C3803       C  0.52624034  0.42561999  0.96142601     0.13410
C3804       C  0.52917927  0.40464168  0.96040077    -0.20940
C3805       C  0.54565909  0.39894294  0.97575570    -0.07460
C3806       C  0.55997261  0.41523677  0.99227898     0.13400
C3807       C  0.57958705  0.41189277  0.00732770    -0.24290
H3808       H  0.56774030  0.44822374  0.00645834     0.14690
H3809       H  0.51824469  0.39236195  0.94764838     0.14720
C3810       C  0.50801803  0.43012053  0.94428617    -0.24240
H3811       H  0.59064727  0.42800820  0.01635046     0.04930
H3812       H  0.59398615  0.41305050  0.98882148     0.08150
H3813       H  0.56945472  0.39219615  0.02863374     0.08150
H3814       H  0.51922636  0.45023011  0.92344426     0.08140
H3815       H  0.99302477  0.42891595  0.96179609     0.08140
H3816       H  0.49762235  0.41461627  0.93416637     0.04910
C3817       C  0.52965001  0.15533434  0.95904031    -0.20890
C3818       C  0.53643737  0.14241841  0.98428194    -0.07460
C3819       C  0.54024496  0.15140387  0.01040985     0.13410
C3820       C  0.53914061  0.17382348  0.00907387    -0.20940
C3821       C  0.53337692  0.18740025  0.98321124    -0.07460
C3822       C  0.52763360  0.17718545  0.95828183     0.13400
C3823       C  0.51923663  0.18870766  0.93057965    -0.24290
H3824       H  0.52582363  0.14828816  0.93944552     0.14690
H3825       H  0.54282396  0.18075462  0.02877565     0.14720
C3826       C  0.54507914  0.13766853  0.04037913    -0.24240
H3827       H  0.51455195  0.17726316  0.91452227     0.04930
H3828       H  0.53522741  0.20998017  0.91489656     0.08150
H3829       H  0.50129858  0.18759072  0.94053606     0.08150
H3830       H  0.52788337  0.11649121  0.05348867     0.08140
H3831       H  0.56313695  0.13823593  0.03339930     0.08140
H3832       H  0.54769811  0.14770658  0.05789850     0.04910
C3833       C  0.51854480  0.08216161  0.82515564    -0.20890
C3834       C  0.53021778  0.06794833  0.83682546    -0.07460
C3835       C  0.54154939  0.06132470  0.81486317     0.13410
C3836       C  0.54080724  0.06882100  0.78247340    -0.20940
C3837       C  0.52949194  0.08322231  0.77060196    -0.07460
C3838       C  0.51789329  0.08974372  0.79236420     0.13400
C3839       C  0.50562324  0.10533582  0.78102621    -0.24290
H3840       H  0.50994204  0.08743250  0.84177798     0.14690
H3841       H  0.54933210  0.06334214  0.76608736     0.14720
C3842       C  0.55574697  0.04759780  0.82449307    -0.24240
H3843       H  0.49853313  0.10970767  0.80089280     0.04930
H3844       H  0.48858942  0.09334753  0.77305875     0.08150
H3845       H  0.52022933  0.12498661  0.76030894     0.08150
H3846       H  0.54186389  0.02682193  0.84349753     0.08140
H3847       H  0.57184847  0.05996285  0.83342161     0.08140
H3848       H  0.56466795  0.04553587  0.80353095     0.04910
C3849       C  0.75304817  0.29119862  0.46968729    -0.20890
C3850       C  0.77428100  0.29334160  0.45115332    -0.07460
C3851       C  0.79789457  0.30319317  0.46021634     0.13410
C3852       C  0.79930762  0.31031060  0.48731959    -0.20940
C3853       C  0.77804434  0.30802986  0.50604531    -0.07460
C3854       C  0.75441855  0.29821480  0.49692903     0.13400
C3855       C  0.73017225  0.29448413  0.51558772    -0.24290
H3856       H  0.73496313  0.28360380  0.46305096     0.14690
H3857       H  0.81745808  0.31792525  0.49379156     0.14720
C3858       C  0.82219573  0.30710393  0.44138566    -0.24240
H3859       H  0.71346573  0.28538802  0.50562406     0.04930
H3860       H  0.73408588  0.31444962  0.51367531     0.08150
H3861       H  0.72390704  0.28067469  0.54162545     0.08150
H3862       H  0.82812850  0.32080290  0.41539471     0.08140
H3863       H  0.81860154  0.28722111  0.44326623     0.08140
H3864       H  0.83900799  0.31651080  0.45107269     0.04910
C3865       C  0.80424204  0.28399022  0.16937989    -0.20890
C3866       C  0.77899634  0.26215348  0.18929014    -0.07460
C3867       C  0.76185995  0.24468127  0.17618426     0.13410
C3868       C  0.77030572  0.24977410  0.14308031    -0.20940
C3869       C  0.79522000  0.27227758  0.12281344    -0.07460
C3870       C  0.81247055  0.28953134  0.13613509     0.13400
C3871       C  0.83958560  0.31355290  0.11554158    -0.24290
H3872       H  0.81738798  0.29716051  0.17978513     0.14690
H3873       H  0.75698821  0.23681129  0.13260123     0.14720
C3874       C  0.73488088  0.22069914  0.19707894    -0.24240
H3875       H  0.85086938  0.32394070  0.13041519     0.04930
H3876       H  0.83847208  0.32865514  0.09608292     0.08150
H3877       H  0.85047968  0.30667893  0.10414613     0.08150
H3878       H  0.72331372  0.22778205  0.20642269     0.08140
H3879       H  0.73635689  0.20700142  0.21810096     0.08140
H3880       H  0.72418544  0.20886354  0.18303731     0.04910
C3881       C  0.74737908  0.03692451  0.50916357    -0.20890
C3882       C  0.77144935  0.06041215  0.50482502    -0.07460
C3883       C  0.79080155  0.07490367  0.47412408     0.13410
C3884       C  0.78593119  0.06511801  0.44910871    -0.20940
C3885       C  0.76205106  0.04141681  0.45364435    -0.07460
C3886       C  0.74250735  0.02719649  0.48408302     0.13400
C3887       C  0.71691609  0.50121666  0.49062629    -0.24290
H3888       H  0.73246054  0.02578462  0.53261058     0.14690
H3889       H  0.80087306  0.07611904  0.42570408     0.14720
C3890       C  0.81625963  0.10116336  0.46720713    -0.24240
H3891       H  0.70428469  0.49207863  0.51611733     0.04930
H3892       H  0.72063952  0.48622383  0.48688278     0.08150
H3893       H  0.70607079  0.50529971  0.47378358     0.08150
H3894       H  0.82775852  0.09745321  0.48323508     0.08140
H3895       H  0.81227132  0.11580334  0.47161853     0.08140
H3896       H  0.82845938  0.11060462  0.44141137     0.04910
C3897       C  0.76344727  0.37042705  0.35635806    -0.20890
C3898       C  0.76233973  0.36455988  0.32834259    -0.07460
C3899       C  0.75778463  0.37923822  0.30181807     0.13410
C3900       C  0.75491455  0.39995543  0.30375148    -0.20940
C3901       C  0.75608843  0.40588451  0.33176725    -0.07460
C3902       C  0.76058028  0.39111472  0.35832110     0.13400
C3903       C  0.76336846  0.39777375  0.38816031    -0.24290
H3904       H  0.76683823  0.35891561  0.37663623     0.14690
H3905       H  0.75153655  0.41145791  0.28345449     0.14720
C3906       C  0.75508787  0.37249173  0.27203919    -0.24240
H3907       H  0.76812202  0.38504243  0.40577657     0.04930
H3908       H  0.74476663  0.39408326  0.40103510     0.08150
H3909       H  0.77937129  0.41938664  0.38074783     0.08150
H3910       H  0.73896972  0.35092111  0.27947437     0.08140
H3911       H  0.77363832  0.37589447  0.25949498     0.08140
H3912       H  0.75057219  0.38533829  0.25419354     0.04910
C3913       C  0.78053362  0.13427267  0.32668646    -0.20890
C3914       C  0.75644899  0.11098533  0.33092838    -0.07460
C3915       C  0.73387566  0.11185528  0.33220994     0.13410
C3916       C  0.73600835  0.13601352  0.32969958    -0.20940
C3917       C  0.76010970  0.15924038  0.32556325    -0.07460
C3918       C  0.78267894  0.15840454  0.32406957     0.13400
C3919       C  0.80880594  0.18243318  0.32105820    -0.24290
H3920       H  0.79778237  0.13347441  0.32573080     0.14690
H3921       H  0.71877376  0.13684876  0.33089016     0.14720
C3922       C  0.70779109  0.08785074  0.33509588    -0.24240
H3923       H  0.82390471  0.17757082  0.32206819     0.04930
H3924       H  0.80690110  0.18879406  0.34144879     0.08150
H3925       H  0.81592312  0.19960230  0.29729259     0.08150
H3926       H  0.70052705  0.07070845  0.35894080     0.08140
H3927       H  0.70981413  0.08142285  0.31480622     0.08140
H3928       H  0.69275623  0.09279180  0.33379048     0.04910
C3929       C  0.75748222  0.48837348  0.18163551    -0.20890
C3930       C  0.77218476  0.00885635  0.19244473    -0.07460
C3931       C  0.79472041  0.03369140  0.16988857     0.13410
C3932       C  0.80205286  0.03734900  0.13717713    -0.20940
C3933       C  0.78734303  0.01705232  0.12594791    -0.07460
C3934       C  0.76465002  0.49215403  0.14866603     0.13400
C3935       C  0.74721417  0.46989254  0.13826855    -0.24290
H3936       H  0.74024270  0.46938282  0.19907302     0.14690
H3937       H  0.81912248  0.05666157  0.12001217     0.14720
C3938       C  0.81107835  0.05719335  0.17915249    -0.24240
H3939       H  0.72981251  0.45248920  0.15887689     0.04930
H3940       H  0.75822216  0.46212872  0.12938829     0.08150
H3941       H  0.74010897  0.47775841  0.11863145     0.08150
H3942       H  0.83135869  0.06206459  0.17508801     0.08140
H3943       H  0.80337307  0.05314869  0.20499892     0.08140
H3944       H  0.81165649  0.07527002  0.16355421     0.04910
C3945       C  0.54568399  0.30270412  0.45620843    -0.20890
C3946       C  0.52055168  0.29041693  0.45191104    -0.07460
C3947       C  0.99976937  0.28619785  0.47471171     0.13410
C3948       C  0.50473161  0.29424511  0.50090025    -0.20940
C3949       C  0.52986450  0.30643209  0.50530901    -0.07460
C3950       C  0.55066469  0.31065315  0.48243076     0.13400
C3951       C  0.57832396  0.32390296  0.48470608    -0.24290
H3952       H  0.56180975  0.30629419  0.43869566     0.14690
H3953       H  0.98856899  0.29064212  0.51835391     0.14720
C3954       C  0.97213862  0.27253868  0.47250626    -0.24240
H3955       H  0.59205239  0.32655719  0.46377325     0.04930
H3956       H  0.57911483  0.31108044  0.50736206     0.08150
H3957       H  0.58541124  0.34434032  0.48453203     0.08150
H3958       H  0.96543601  0.25219799  0.47260769     0.08140
H3959       H  0.97119160  0.28518498  0.44988981     0.08140
H3960       H  0.95827798  0.26966493  0.49348431     0.04910
C3961       C  0.89598754  0.25376855  0.35724349    -0.20890
C3962       C  0.91169277  0.26003892  0.32699106    -0.07460
C3963       C  0.90284407  0.26430046  0.29891922     0.13410
C3964       C  0.87900089  0.26240023  0.30201308    -0.20940
C3965       C  0.86359799  0.25666653  0.33210827    -0.07460
C3966       C  0.87220693  0.25204797  0.36026369     0.13400
C3967       C  0.85643834  0.24473076  0.39383105    -0.24290
H3968       H  0.90232125  0.25008586  0.37892586     0.14690
H3969       H  0.87265448  0.26611989  0.28035051     0.14720
C3970       C  0.91851153  0.27182031  0.26521586    -0.24240
H3971       H  0.86527433  0.23978079  0.41311874     0.04930
H3972       H  0.83635909  0.22663903  0.40006282     0.08150
H3973       H  0.85558362  0.26208475  0.39457935     0.08150
H3974       H  0.92032127  0.25496267  0.26457240     0.08140
H3975       H  0.93811965  0.29064456  0.25848663     0.08140
H3976       H  0.90907342  0.27577316  0.24620411     0.04910
C3977       C  0.61761982  0.24478439  0.35790195    -0.20890
C3978       C  0.61609270  0.26073021  0.32952169    -0.07460
C3979       C  0.63822112  0.27773971  0.30143137     0.13410
C3980       C  0.66105736  0.27799779  0.30231719    -0.20940
C3981       C  0.66254397  0.26197744  0.33060364    -0.07460
C3982       C  0.64052647  0.24509333  0.35877889     0.13400
C3983       C  0.64074025  0.22672401  0.38942303    -0.24290
H3984       H  0.60065535  0.23175309  0.37938283     0.14690
H3985       H  0.67802855  0.29102760  0.28083140     0.14720
C3986       C  0.63827562  0.29627028  0.27072021    -0.24240
H3987       H  0.62135642  0.21372685  0.40829010     0.04930
H3988       H  0.65521965  0.23904314  0.40015515     0.08150
H3989       H  0.64581222  0.21321762  0.38358085     0.08150
H3990       H  0.63229266  0.30915219  0.27659354     0.08140
H3991       H  0.62473100  0.28397692  0.25919335     0.08140
H3992       H  0.65796207  0.30991704  0.25244852     0.04910
C3993       C  0.55282770  0.29321750  0.13228959    -0.20890
C3994       C  0.54509296  0.27132898  0.12260400    -0.07460
C3995       C  0.53095948  0.24450408  0.14730685     0.13410
C3996       C  0.52420206  0.24052883  0.18030337    -0.20940
C3997       C  0.53049335  0.26237558  0.18911147    -0.07460
C3998       C  0.54543709  0.28903989  0.16507649     0.13400
C3999       C  0.55377995  0.31316603  0.17404603    -0.24290
H4000       H  0.56412937  0.31386078  0.11402618     0.14690
H4001       H  0.51327993  0.22019430  0.19933348     0.14720
C4002       C  0.52188245  0.21976085  0.13961400    -0.24240
H4003       H  0.56582644  0.33266017  0.15222300     0.04930
H4004       H  0.56560230  0.31338124  0.19133973     0.08150
H4005       H  0.53627479  0.31201110  0.18575966     0.08150
H4006       H  0.53893165  0.22114320  0.12606263     0.08140
H4007       H  0.50797076  0.21802030  0.12504250     0.08140
H4008       H  0.51147137  0.20077252  0.16213694     0.04910
C4009       C  0.53426579  0.05025970  0.49684572    -0.20890
C4010       C  0.51847850  0.05885174  0.50646023    -0.07460
C4011       C  0.99940147  0.05728170  0.48996161     0.13410
C4012       C  0.99712158  0.04767650  0.46460931    -0.20940
C4013       C  0.51314299  0.03932216  0.45479912    -0.07460
C4014       C  0.53197839  0.04058209  0.47170057     0.13400
C4015       C  0.54997289  0.03173112  0.46407775    -0.24290
H4016       H  0.54866253  0.05091272  0.50935187     0.14690
H4017       H  0.98266576  0.04690576  0.45215695     0.14720
C4018       C  0.98149771  0.06603970  0.49814332    -0.24240
H4019       H  0.56257828  0.03334080  0.48058269     0.04930
H4020       H  0.56327367  0.04491085  0.43874895     0.08150
H4021       H  0.53830064  0.01015382  0.46725401     0.08150
H4022       H  0.99331477  0.08763818  0.49481572     0.08140
H4023       H  0.96858553  0.05299236  0.52370586     0.08140
H4024       H  0.96858800  0.06425256  0.48202072     0.04910
C4025       C  0.50428582  0.38695916  0.36005318    -0.20890
C4026       C  0.50464284  0.40399447  0.33097928    -0.07460
C4027       C  0.50809654  0.39988990  0.30180656     0.13410
C4028       C  0.51153060  0.37900235  0.30244831    -0.20940
C4029       C  0.51132087  0.36209117  0.33149303    -0.07460
C4030       C  0.50767437  0.36606066  0.36068896     0.13400
C4031       C  0.50822161  0.34896454  0.39225548    -0.24290
H4032       H  0.50195266  0.39044721  0.38221612     0.14690
H4033       H  0.51389842  0.37548826  0.28031157     0.14720
C4034       C  0.50726040  0.41675898  0.27028638    -0.24240
H4035       H  0.50668241  0.35602429  0.41206194     0.04930
H4036       H  0.52686908  0.34999918  0.38846413     0.08150
H4037       H  0.99150899  0.32757906  0.40074373     0.08150
H4038       H  0.52404970  0.43818478  0.26125633     0.08140
H4039       H  0.98864371  0.41576727  0.27436926     0.08140
H4040       H  0.50839928  0.40937098  0.25069614     0.04910
C4041       C  0.53156369  0.13290196  0.32961411    -0.20890
C4042       C  0.50778399  0.11026254  0.33173420    -0.07460
C4043       C  0.98571230  0.11181379  0.33103199     0.13410
C4044       C  0.98792416  0.13594522  0.32855826    -0.20940
C4045       C  0.51163193  0.15849814  0.32664929    -0.07460
C4046       C  0.53375454  0.15702929  0.32729275     0.13400
C4047       C  0.55931431  0.18032836  0.32684401    -0.24290
H4048       H  0.54844751  0.13156863  0.33010782     0.14690
H4049       H  0.97102099  0.13725956  0.32813699     0.14720
C4050       C  0.96004009  0.08845777  0.33204206    -0.24240
H4051       H  0.57403631  0.17502138  0.32923613     0.04930
H4052       H  0.55609971  0.18590333  0.34755785     0.08150
H4053       H  0.56763852  0.19815294  0.30338374     0.08150
H4054       H  0.95184732  0.07109108  0.35593352     0.08140
H4055       H  0.96298667  0.08230896  0.31179902     0.08140
H4056       H  0.94541331  0.09386790  0.32934998     0.04910
C4057       C  0.89847124  0.02159678  0.34286598    -0.20890
C4058       C  0.90024284  0.00168101  0.33606294    -0.07460
C4059       C  0.87816812  0.48094266  0.33149076     0.13410
C4060       C  0.85524931  0.48108653  0.33332554    -0.20940
C4061       C  0.85368988  0.50129557  0.33980660    -0.07460
C4062       C  0.87575496  0.02189621  0.34450302     0.13400
C4063       C  0.87602382  0.04492735  0.35004090    -0.24290
H4064       H  0.91523981  0.03739468  0.34641868     0.14690
H4065       H  0.83837525  0.46524868  0.32977708     0.14720
C4066       C  0.87827656  0.45816088  0.32572043    -0.24240
H4067       H  0.89555967  0.06026348  0.35059604     0.04930
H4068       H  0.86190732  0.03698098  0.37399089     0.08150
H4069       H  0.87090548  0.05536836  0.33001960     0.08150
H4070       H  0.88324261  0.44767650  0.34589632     0.08140
H4071       H  0.89276800  0.46625400  0.30200423     0.08140
H4072       H  0.85886507  0.44286450  0.32478840     0.04910
C4073       C  0.65210973  0.02551935  0.30859858    -0.20890
C4074       C  0.65207599  0.00501028  0.33274505    -0.07460
C4075       C  0.62862060  0.48386461  0.35783837     0.13410
C4076       C  0.60573501  0.48386157  0.35831248    -0.20940
C4077       C  0.60579499  0.50439986  0.33414036    -0.07460
C4078       C  0.62927742  0.02557126  0.30911332     0.13400
C4079       C  0.63050824  0.04873393  0.28361110    -0.24290
H4080       H  0.67022123  0.04183576  0.28962173     0.14690
H4081       H  0.58765160  0.46762340  0.37737887     0.14720
C4082       C  0.62757737  0.46096857  0.38358828    -0.24240
H4083       H  0.65062569  0.06413297  0.26674034     0.04930
H4084       H  0.62432045  0.05892212  0.29573827     0.08150
H4085       H  0.61743518  0.04104644  0.26870365     0.08150
H4086       H  0.64091286  0.46900152  0.39811722     0.08140
H4087       H  0.63361907  0.45056688  0.37169731     0.08140
H4088       H  0.60754370  0.44568792  0.40073919     0.04910
C4089       C  0.54695503  0.03670539  0.13737703    -0.20890
C4090       C  0.53667447  0.01507474  0.12699726    -0.07460
C4091       C  0.51811192  0.48834573  0.15083014     0.13410
C4092       C  0.51008054  0.48432331  0.18372566    -0.20940
C4093       C  0.51965618  0.50625279  0.19327836    -0.07460
C4094       C  0.53860912  0.03271446  0.16992197     0.13400
C4095       C  0.55047995  0.05734111  0.17837870    -0.24290
H4096       H  0.56131019  0.05723793  0.11973412     0.14690
H4097       H  0.99606519  0.46399335  0.20207959     0.14720
C4098       C  0.50589945  0.46404105  0.14195271    -0.24240
H4099       H  0.54646718  0.07208373  0.16348685     0.04930
H4100       H  0.57199351  0.06714177  0.17273120     0.08150
H4101       H  0.54269952  0.05256334  0.20450522     0.08150
H4102       H  0.52130463  0.46164873  0.13154008     0.08140
H4103       H  0.49523894  0.46661989  0.12400517     0.08140
H4104       H  0.99162068  0.44497642  0.16362916     0.04910
Zr4105     Zr  0.97686895  0.51651922  0.36845439     2.17510
O4106       O  0.93911781  0.99481424  0.41571930    -0.51920
O4107       O  0.98812350  0.56269539  0.35290993    -0.75120
O4108       O  0.99110616  0.52754782  0.41462728    -0.81910
O4109       O  0.93438882  0.99898472  0.31101960    -0.83650
O4110       O  0.52655939  0.52526165  0.41604022    -0.79280
O4111       O  0.93709744  0.51016446  0.35537172    -0.90910
O4112       O  0.52643082  0.59040852  0.31183758    -0.76870
O4113       O  0.52336749  0.54214808  0.35296872    -0.86360
O4114       O  0.99112035  0.53713205  0.31000451    -0.86050
O4115       O  0.98791392  0.98410498  0.39091292    -0.72810
O4116       O  0.95900557  0.98015719  0.34972931    -0.84950
Zr4117     Zr  0.53290043  0.99614870  0.29745326     2.26420
Zr4118     Zr  0.53483573  0.51023717  0.37432241     2.06270
Zr4119     Zr  0.97408028  0.00106395  0.29115898     2.10050
Zr4120     Zr  0.53762167  0.56281653  0.29486713     1.78760
O4121       O  0.93897839  0.96080648  0.28673265    -0.93750
O4122       O  0.57725118  0.59672212  0.30220772    -0.41560
O4123       O  0.52095112  0.52754422  0.27506347    -0.78190
O4124       O  0.55090780  0.53245791  0.31582696    -0.96880
O4125       O  0.51791765  0.97431837  0.35553790    -0.90180
O4126       O  0.98627549  0.96967732  0.31189755    -0.93020
C4127       C  0.00730620  0.58614372  0.33234590     1.00730
C4128       C  0.92540508  0.50343742  0.33413884     1.13660
C4129       C  0.50997647  0.52999723  0.42683474     1.04440
O4130       O  0.57599473  0.54436400  0.37850299    -0.95180
O4131       O  0.57122976  0.50580720  0.35975544    -0.90920
O4132       O  0.57163499  0.00052613  0.31143864    -0.84070
C4133       C  0.58123236  0.00339021  0.33529894     1.11080
O4134       O  0.93097404  0.92541788  0.41418936    -0.97150
Zr4135     Zr  0.97145000  0.94888117  0.37022936     1.88940
O4136       O  0.52006408  0.95017830  0.30916829    -0.73800
O4137       O  0.52698562  0.97481903  0.42470983    -0.53060
O4138       O  0.97551617  0.92412562  0.42059767    -0.97740
O4139       O  0.93333490  0.91450618  0.36082090    -0.54960
O4140       O  0.98532513  0.92202790  0.35505218    -0.74320
C4141       C  0.50298419  0.92678195  0.33158667     0.98030
O4142       O  0.57272665  0.51508651  0.25464297    -0.63140
O4143       O  0.97052972  0.53167752  0.24604140    -0.57940
O4144       O  0.52636149  0.99693266  0.24476235    -0.94620
O4145       O  0.99349248  0.00348346  0.23881562    -0.93050
O4146       O  0.53169498  0.58774999  0.24651816    -0.93410
O4147       O  0.57555438  0.58637349  0.24729561    -0.92190
C4148       C  0.01211343  0.00120026  0.22809088     1.16870
H4149       H  0.98483308  0.54860162  0.30186208     0.32810
H4150       H  0.56980274  0.54269878  0.30878099     0.43670
H4151       H  0.98016824  0.95642896  0.30221501     0.37190
H4152       H  0.98114793  0.97611303  0.41451086     0.33670
H4153       H  0.58042642  0.61437610  0.28830998     0.25460
H4154       H  0.54329575  0.98317467  0.43102550     0.31400
H4155       H  0.96784322  0.90552748  0.42134173     0.37310
H4156       H  0.54212620  0.60689557  0.24409023     0.31770
H4157       H  0.95351846  0.52000990  0.24275317     0.30640
H4158       H  0.93436527  0.96794087  0.26724449     0.32320
H4159       H  0.93163702  0.89720052  0.37267046     0.31290
H4160       H  0.57729321  0.57185467  0.24481750     0.35290
H4161       H  0.56919526  0.50101108  0.24596330     0.28020
H4162       H  0.94093646  0.00972648  0.42169247     0.32260
H4163       H  0.92584304  0.90637795  0.42447614     0.35110
H4164       H  0.96790769  0.54336450  0.25498247     0.27720
H4165       H  0.57436281  0.53016831  0.23654352     0.40590
H4166       H  0.57773923  0.56178075  0.36725205     0.30640
H4167       H  0.57188333  0.59486798  0.32491398     0.38260
H4168       H  0.93873349  0.91802348  0.33740785     0.30110
H4169       H  0.51374836  0.97306228  0.44143486     0.30170
H4170       H  0.94224800  0.98395165  0.43379674     0.30440
Zr4171     Zr  0.98564788  0.77080819  0.36427486     2.17510
O4172       O  0.94659416  0.74634543  0.41061078    -0.51920
O4173       O  0.99578012  0.81591018  0.35214540    -0.75120
O4174       O  0.99899787  0.78041013  0.41110489    -0.81910
O4175       O  0.94688857  0.75856403  0.30257603    -0.83650
O4176       O  0.53386318  0.77695275  0.41358237    -0.79280
O4177       O  0.94716174  0.76652836  0.34905752    -0.90910
O4178       O  0.53247562  0.84504227  0.30865983    -0.76870
O4179       O  0.53213475  0.79651552  0.35036244    -0.86360
O4180       O  0.00119578  0.79339679  0.30608338    -0.86050
O4181       O  0.99689264  0.73863507  0.38623763    -0.72810
O4182       O  0.96842544  0.73600191  0.34340106    -0.84950
Zr4183     Zr  0.54306944  0.75220772  0.29288085     2.26420
Zr4184     Zr  0.54382441  0.76456711  0.37029539     2.06270
Zr4185     Zr  0.98559050  0.75881217  0.28509700     2.10050
Zr4186     Zr  0.54750130  0.81920720  0.29256543     1.78760
O4187       O  0.95024048  0.72036146  0.27796080    -0.93750
O4188       O  0.58414170  0.85233689  0.30516678    -0.41560
O4189       O  0.53225136  0.78478475  0.27106290    -0.78190
O4190       O  0.56052505  0.78816115  0.31210699    -0.96880
O4191       O  0.52691327  0.72921538  0.35075851    -0.90180
O4192       O  0.99657425  0.72648920  0.30591563    -0.93020
C4193       C  0.51354961  0.83963804  0.33090940     1.00730
C4194       C  0.93693567  0.76196844  0.32598271     1.13660
C4195       C  0.51727176  0.78184084  0.42390553     1.04440
O4196       O  0.58375860  0.79851937  0.37698950    -0.95180
O4197       O  0.58110451  0.76173021  0.35474605    -0.90920
O4198       O  0.58190897  0.75665131  0.30638295    -0.84070
C4199       C  0.59146037  0.75963400  0.33023166     1.11080
O4200       O  0.94055095  0.68176377  0.40884377    -0.97150
Zr4201     Zr  0.98042095  0.70456740  0.36417603     1.88940
O4202       O  0.53071865  0.70588496  0.30611849    -0.73800
O4203       O  0.53676670  0.72837563  0.41910964    -0.53060
O4204       O  0.98401128  0.67798892  0.41352149    -0.97740
O4205       O  0.94187740  0.67146277  0.35402149    -0.54960
O4206       O  0.99273889  0.67759217  0.34774473    -0.74320
C4207       C  0.51184045  0.68229470  0.32672646     0.98030
O4208       O  0.58240702  0.77306627  0.24825933    -0.63140
O4209       O  0.98625018  0.79185931  0.23828260    -0.57940
O4210       O  0.53541971  0.75057352  0.24140057    -0.94620
O4211       O  0.00599578  0.76206418  0.23329944    -0.93050
O4212       O  0.54424758  0.84427494  0.24172038    -0.93410
O4213       O  0.58817797  0.84539805  0.24831026    -0.92190
C4214       C  0.52305066  0.75749163  0.22367131     1.16870
H4215       H  0.99482999  0.80481983  0.29813325     0.32810
H4216       H  0.57942156  0.79840196  0.30539777     0.43670
H4217       H  0.99052117  0.71354662  0.29578355     0.37190
H4218       H  0.98987881  0.73020128  0.40981769     0.33670
H4219       H  0.58749776  0.87010734  0.29137993     0.25460
H4220       H  0.55231487  0.73716871  0.42668159     0.31400
H4221       H  0.97498319  0.65934446  0.41411024     0.37310
H4222       H  0.55162457  0.86274960  0.24128496     0.31770
H4223       H  0.96996131  0.78134899  0.23284996     0.30640
H4224       H  0.94682075  0.72859611  0.25792404     0.32320
H4225       H  0.93982909  0.65385879  0.36515983     0.31290
H4226       H  0.58888918  0.83170290  0.24182340     0.35290
H4227       H  0.57977430  0.75906213  0.23982971     0.28020
H4228       H  0.94689784  0.76047938  0.41707712     0.32260
H4229       H  0.93443559  0.66236154  0.41800910     0.35110
H4230       H  0.98360411  0.80366621  0.24692195     0.27720
H4231       H  0.58263297  0.78723980  0.23037051     0.40590
H4232       H  0.58526060  0.81586064  0.36613238     0.30640
H4233       H  0.57680132  0.84940278  0.32778635     0.38260
H4234       H  0.94723663  0.67554814  0.33039982     0.30110
H4235       H  0.52215168  0.72458866  0.43583934     0.30170
H4236       H  0.95001670  0.73584851  0.42870724     0.30440
Zr4237     Zr  0.72651094  0.51742690  0.36822904     2.17510
O4238       O  0.68807414  0.99507974  0.41478583    -0.51920
O4239       O  0.73724254  0.56342138  0.35267659    -0.75120
O4240       O  0.73962156  0.52787850  0.41504850    -0.81910
O4241       O  0.68712940  0.00414008  0.30741249    -0.83650
O4242       O  0.77637062  0.52764434  0.41624460    -0.79280
O4243       O  0.68685301  0.51076245  0.35502455    -0.90910
O4244       O  0.77556363  0.59124051  0.31164258    -0.76870
O4245       O  0.77294017  0.54307908  0.35402191    -0.86360
O4246       O  0.74197653  0.53875981  0.30977971    -0.86050
O4247       O  0.73729770  0.98493387  0.39127972    -0.72810
O4248       O  0.70932942  0.98167193  0.34848878    -0.84950
Zr4249     Zr  0.78392683  0.99770256  0.29811794     2.26420
Zr4250     Zr  0.78420166  0.51114777  0.37588665     2.06270
Zr4251     Zr  0.72556309  0.00330818  0.29000737     2.10050
Zr4252     Zr  0.78842969  0.56423393  0.29603435     1.78760
O4253       O  0.68986598  0.96290440  0.28655537    -0.93750
O4254       O  0.82650534  0.59745903  0.30655969    -0.41560
O4255       O  0.77234851  0.52940481  0.27552079    -0.78190
O4256       O  0.80135111  0.53356076  0.31743640    -0.96880
O4257       O  0.76791496  0.97577597  0.35622645    -0.90180
O4258       O  0.73732272  0.97163401  0.31127867    -0.93020
C4259       C  0.75623314  0.58688799  0.33190747     1.00730
C4260       C  0.67692209  0.50662234  0.33170658     1.13660
C4261       C  0.75892155  0.53147336  0.42674822     1.04440
O4262       O  0.82368523  0.54413973  0.38429537    -0.95180
O4263       O  0.82102038  0.50734301  0.36125746    -0.90920
O4264       O  0.81888177  0.99583530  0.31726477    -0.84070
C4265       C  0.82955492  0.00134538  0.33961098     1.11080
O4266       O  0.67954609  0.92734157  0.41055545    -0.97150
Zr4267     Zr  0.72155058  0.95030779  0.36959155     1.88940
O4268       O  0.77034304  0.95166312  0.30799470    -0.73800
O4269       O  0.77446469  0.97456675  0.42622693    -0.53060
O4270       O  0.72340991  0.92504888  0.42151538    -0.97740
O4271       O  0.68511041  0.91516554  0.35885401    -0.54960
O4272       O  0.73722984  0.92430216  0.35574746    -0.74320
C4273       C  0.75430085  0.92869025  0.33183379     0.98030
O4274       O  0.82574596  0.52104904  0.25623492    -0.63140
O4275       O  0.72327026  0.53382555  0.24327208    -0.57940
O4276       O  0.77885054  0.99967418  0.24435561    -0.94620
O4277       O  0.74554651  0.00550018  0.23809707    -0.93050
O4278       O  0.78471754  0.58969523  0.24591534    -0.93410
O4279       O  0.82808127  0.58873647  0.25062410    -0.92190
C4280       C  0.76461950  0.00382162  0.22739778     1.16870
H4281       H  0.73585181  0.55032728  0.30131033     0.32810
H4282       H  0.82023963  0.54358603  0.31097059     0.43670
H4283       H  0.73140389  0.95854797  0.30135876     0.37190
H4284       H  0.73012903  0.97672336  0.41483848     0.33670
H4285       H  0.82936932  0.61518462  0.29366552     0.25460
H4286       H  0.79142013  0.98086043  0.43113118     0.31400
H4287       H  0.71416204  0.90604950  0.42333796     0.37310
H4288       H  0.79437233  0.60867229  0.24419744     0.31770
H4289       H  0.70574904  0.52265442  0.24080444     0.30640
H4290       H  0.68653594  0.96978452  0.26572519     0.32320
H4291       H  0.68293388  0.89797551  0.37250817     0.31290
H4292       H  0.82843258  0.57438956  0.24541713     0.35290
H4293       H  0.82482070  0.53260371  0.23639053     0.28020
H4294       H  0.68977445  0.00963575  0.42148682     0.32260
H4295       H  0.67433100  0.90838610  0.42206086     0.35110
H4296       H  0.72228839  0.54692625  0.25086593     0.27720
H4297       H  0.83886267  0.53442623  0.26339980     0.40590
H4298       H  0.83236803  0.56042899  0.36353151     0.30640
H4299       H  0.82025734  0.59430616  0.32965211     0.38260
H4300       H  0.69178711  0.91791738  0.33610019     0.30110
H4301       H  0.76371513  0.97526877  0.44344201     0.30170
H4302       H  0.69069221  0.98356955  0.43275594     0.30440
Zr4303     Zr  0.73732122  0.77327015  0.36477006     2.17510
O4304       O  0.70049266  0.75088132  0.41342997    -0.51920
O4305       O  0.74739844  0.81863194  0.35093756    -0.75120
O4306       O  0.75280882  0.78412417  0.41020903    -0.81910
O4307       O  0.69708328  0.76077357  0.30489453    -0.83650
O4308       O  0.78673036  0.77919685  0.41275509    -0.79280
O4309       O  0.69744840  0.76703563  0.35271018    -0.90910
O4310       O  0.78298668  0.84693593  0.30587782    -0.76870
O4311       O  0.78377219  0.79889617  0.34941816    -0.86360
O4312       O  0.75164209  0.79480287  0.30634775    -0.86050
O4313       O  0.74812027  0.74071177  0.38636093    -0.72810
O4314       O  0.71896329  0.73785832  0.34468638    -0.84950
Zr4315     Zr  0.79283740  0.75317906  0.29269478     2.26420
Zr4316     Zr  0.79498819  0.76658427  0.36924635     2.06270
Zr4317     Zr  0.73489656  0.75964015  0.28616772     2.10050
Zr4318     Zr  0.79802307  0.82056937  0.29147010     1.78760
O4319       O  0.69835625  0.72011219  0.28224522    -0.93750
O4320       O  0.83454408  0.85460021  0.30321852    -0.41560
O4321       O  0.78162068  0.78549638  0.27107577    -0.78190
O4322       O  0.81108041  0.78950562  0.31105634    -0.96880
O4323       O  0.77726274  0.73082644  0.35056688    -0.90180
O4324       O  0.74622086  0.72758686  0.30664893    -0.93020
C4325       C  0.76448491  0.84197935  0.32833446     1.00730
C4326       C  0.68721296  0.76316916  0.32951297     1.13660
C4327       C  0.77106080  0.78508611  0.42286870     1.04440
O4328       O  0.83647310  0.80161563  0.37162234    -0.95180
O4329       O  0.83112146  0.76239535  0.35460477    -0.90920
O4330       O  0.82861314  0.75197323  0.31003250    -0.84070
C4331       C  0.83939251  0.75668741  0.33257610     1.11080
O4332       O  0.69129794  0.68375103  0.41004648    -0.97150
Zr4333     Zr  0.73078881  0.70618907  0.36493381     1.88940
O4334       O  0.77888797  0.70660598  0.30404686    -0.73800
O4335       O  0.78899869  0.73145837  0.41852412    -0.53060
O4336       O  0.73497316  0.67991437  0.41394618    -0.97740
O4337       O  0.69175102  0.67296458  0.35566500    -0.54960
O4338       O  0.74252599  0.67885049  0.34811110    -0.74320
C4339       C  0.76058131  0.68318656  0.32572694     0.98030
O4340       O  0.83307222  0.77672335  0.24795020    -0.63140
O4341       O  0.73317600  0.79098553  0.23980192    -0.57940
O4342       O  0.78621597  0.75340324  0.24045190    -0.94620
O4343       O  0.75373476  0.76065932  0.23451968    -0.93050
O4344       O  0.79488930  0.84486904  0.23998519    -0.93410
O4345       O  0.83886944  0.84597463  0.24769544    -0.92190
C4346       C  0.77203601  0.75791280  0.22385254     1.16870
H4347       H  0.74518664  0.80614503  0.29844698     0.32810
H4348       H  0.82996157  0.79944267  0.30406783     0.43670
H4349       H  0.73984757  0.71450475  0.29673375     0.37190
H4350       H  0.74146899  0.73250890  0.40997389     0.33670
H4351       H  0.83767739  0.87215479  0.28901764     0.25460
H4352       H  0.80396282  0.74110418  0.42660915     0.31400
H4353       H  0.72585711  0.66122062  0.41469288     0.37310
H4354       H  0.80508610  0.86414358  0.23707773     0.31770
H4355       H  0.71559104  0.78016563  0.23728903     0.30640
H4356       H  0.69660331  0.72711584  0.26027172     0.32320
H4357       H  0.68940373  0.65528721  0.36736546     0.31290
H4358       H  0.83806058  0.83254442  0.23925104     0.35290
H4359       H  0.83198463  0.78988196  0.23021347     0.28020
H4360       H  0.70230870  0.76561739  0.41981198     0.32260
H4361       H  0.68533349  0.66440460  0.41964054     0.35110
H4362       H  0.73250567  0.80409545  0.24768560     0.27720
H4363       H  0.84736763  0.78855042  0.25539030     0.40590
H4364       H  0.84047103  0.81872503  0.35487337     0.30640
H4365       H  0.82724906  0.85199644  0.32568360     0.38260
H4366       H  0.69693587  0.67650689  0.33220228     0.30110
H4367       H  0.77354406  0.72661293  0.43483858     0.30170
H4368       H  0.70424276  0.74020436  0.43087281     0.30440
Zr4369     Zr  0.55326896  0.57214696  0.01740885     2.17510
O4370       O  0.54515011  0.58653283  0.06025281    -0.51920
O4371       O  0.59850152  0.60921803  0.00681425    -0.75120
O4372       O  0.54872907  0.54585255  0.07299109    -0.81910
O4373       O  0.53991633  0.61706944  0.95458153    -0.83650
O4374       O  0.54041573  0.50445773  0.07957514    -0.79280
O4375       O  0.54214571  0.60579029  0.00663792    -0.90910
O4376       O  0.62483913  0.61035558  0.96632648    -0.76870
O4377       O  0.57660145  0.55225406  0.00817417    -0.86360
O4378       O  0.57479980  0.59416815  0.96010215    -0.86050
O4379       O  0.52009377  0.52452364  0.03484719    -0.72810
O4380       O  0.51910485  0.56348322  0.99140881    -0.84950
Zr4381     Zr  0.53230264  0.51770479  0.94048285     2.26420
Zr4382     Zr  0.54378777  0.50475593  0.02441203     2.06270
Zr4383     Zr  0.54097343  0.58482992  0.93406193     2.10050
Zr4384     Zr  0.59757030  0.57384440  0.95062031     1.78760
O4385       O  0.50655580  0.59114904  0.92073176    -0.93750
O4386       O  0.62769605  0.56310242  0.97148725    -0.41560
O4387       O  0.56453189  0.56529461  0.92301622    -0.78190
O4388       O  0.56613478  0.52642160  0.96692964    -0.96880
O4389       O  0.51050288  0.49620179  0.99756315    -0.90180
O4390       O  0.50900416  0.53755822  0.95004003    -0.93020
C4391       C  0.62088365  0.61971153  0.98677950     1.00730
C4392       C  0.53968283  0.62033335  0.98179856     1.13660
C4393       C  0.54283716  0.52214725  0.09092175     1.04440
O4394       O  0.58026122  0.50260670  0.03783506    -0.95180
O4395       O  0.54288806  0.97085920  0.00550828    -0.90920
O4396       O  0.53309612  0.97699367  0.95728344    -0.84070
C4397       C  0.53820233  0.96432866  0.98086304     1.11080
O4398       O  0.96577936  0.52450362  0.04678295    -0.97150
Zr4399     Zr  0.98743115  0.51613235  0.00709730     1.88940
O4400       O  0.98771202  0.98059606  0.94998933    -0.73800
O4401       O  0.51053050  0.95834125  0.06233091    -0.53060
O4402       O  0.96148356  0.97545210  0.05759135    -0.97740
O4403       O  0.95569844  0.52528404  0.98850922    -0.54960
O4404       O  0.96133500  0.97972692  0.99042810    -0.74320
C4405       C  0.96541490  0.97040972  0.96997174     0.98030
O4406       O  0.55651721  0.51569841  0.89585737    -0.63140
O4407       O  0.57596685  0.62829388  0.89132134    -0.57940
O4408       O  0.52895887  0.53910085  0.88717052    -0.94620
O4409       O  0.53586550  0.57984731  0.88266392    -0.93050
O4410       O  0.62356931  0.61332597  0.89900964    -0.93410
O4411       O  0.62183605  0.56748956  0.91138354    -0.92190
C4412       C  0.53167772  0.56179166  0.87114992     1.16870
H4413       H  0.58631856  0.61359917  0.95295852     0.32810
H4414       H  0.57546439  0.51867874  0.96147736     0.43670
H4415       H  0.49660983  0.53473475  0.93754937     0.37190
H4416       H  0.51035756  0.51649898  0.05761981     0.33670
H4417       H  0.64534117  0.57966635  0.95902417     0.25460
H4418       H  0.51862017  0.95397961  0.07925741     0.31400
H4419       H  0.94356032  0.96608208  0.05544928     0.37310
H4420       H  0.64165711  0.62241528  0.90068400     0.31770
H4421       H  0.56686346  0.63465311  0.87777004     0.30640
H4422       H  0.51591179  0.60932386  0.90263360     0.32320
H4423       H  0.93850602  0.50788580  0.00012842     0.31290
H4424       H  0.60833135  0.55434375  0.90437538     0.35290
H4425       H  0.57093748  0.53488407  0.88317050     0.28020
H4426       H  0.55946489  0.59047998  0.07058376     0.32260
H4427       H  0.94697087  0.50983124  0.05386487     0.35110
H4428       H  0.58298736  0.64083216  0.90259598     0.27720
H4429       H  0.56571870  0.50730652  0.90534639     0.40590
H4430       H  0.58867370  0.51655724  0.04693588     0.30640
H4431       H  0.62523481  0.56248874  0.99402128     0.38260
H4432       H  0.95849376  0.52757651  0.96531507     0.30110
H4433       H  0.49674682  0.95951989  0.07361135     0.30170
H4434       H  0.52886908  0.57085520  0.07744260     0.30440
Zr4435     Zr  0.55612778  0.82458115  0.01368161     2.17510
O4436       O  0.54288737  0.83780726  0.05483595    -0.51920
O4437       O  0.60206117  0.85945247  0.00420891    -0.75120
O4438       O  0.55432791  0.80082167  0.06875269    -0.81910
O4439       O  0.54379445  0.87002649  0.94893572    -0.83650
O4440       O  0.54581120  0.75919313  0.07626033    -0.79280
O4441       O  0.55098977  0.86250088  0.99871895    -0.90910
O4442       O  0.62652455  0.86176096  0.96041070    -0.76870
O4443       O  0.57846943  0.80366528  0.00487760    -0.86360
O4444       O  0.57633616  0.84497417  0.95621858    -0.86050
O4445       O  0.52236245  0.77691266  0.03340946    -0.72810
O4446       O  0.52108204  0.81526314  0.98921184    -0.84950
Zr4447     Zr  0.53133920  0.76684072  0.94127792     2.26420
Zr4448     Zr  0.54503369  0.75614433  0.02327792     2.06270
Zr4449     Zr  0.54163424  0.83507854  0.93165695     2.10050
Zr4450     Zr  0.59830650  0.82380584  0.94721584     1.78760
O4451       O  0.50592664  0.83980033  0.92058776    -0.93750
O4452       O  0.62845427  0.81322990  0.96835160    -0.41560
O4453       O  0.56414604  0.81445165  0.92148144    -0.78190
O4454       O  0.56619279  0.77613606  0.96585774    -0.96880
O4455       O  0.51076774  0.74693322  0.99837348    -0.90180
O4456       O  0.50895404  0.78771977  0.94998363    -0.93020
C4457       C  0.62373433  0.87033253  0.98238166     1.00730
C4458       C  0.54714149  0.87583143  0.97424702     1.13660
C4459       C  0.54919322  0.77748096  0.08688493     1.04440
O4460       O  0.58082986  0.75197052  0.03538545    -0.95180
O4461       O  0.54033085  0.71991854  0.00656839    -0.90920
O4462       O  0.52931318  0.72479308  0.95927623    -0.84070
C4463       C  0.53416583  0.71213931  0.98309452     1.11080
O4464       O  0.96899616  0.77823504  0.04636936    -0.97150
Zr4465     Zr  0.98856361  0.76775308  0.00725441     1.88940
O4466       O  0.98641755  0.72952531  0.95238721    -0.73800
O4467       O  0.51117230  0.71106869  0.06385423    -0.53060
O4468       O  0.96264725  0.72823493  0.05891685    -0.97740
O4469       O  0.95701942  0.77712937  0.98845395    -0.54960
O4470       O  0.96127091  0.72992745  0.99284787    -0.74320
C4471       C  0.96446656  0.71973337  0.97292452     0.98030
O4472       O  0.55742367  0.76534361  0.89818660    -0.63140
O4473       O  0.57517548  0.87757510  0.88630712    -0.57940
O4474       O  0.52648831  0.78610332  0.88869285    -0.94620
O4475       O  0.53629059  0.82834705  0.88123382    -0.93050
O4476       O  0.62421972  0.86228779  0.89470642    -0.93410
O4477       O  0.62059379  0.81636240  0.90703138    -0.92190
C4478       C  0.53058071  0.80914753  0.87130330     1.16870
H4479       H  0.58815067  0.86442237  0.94852858     0.32810
H4480       H  0.57475905  0.76756616  0.96087645     0.43670
H4481       H  0.49618979  0.78456630  0.93802040     0.37190
H4482       H  0.51358928  0.76968611  0.05642563     0.33670
H4483       H  0.64607670  0.82888495  0.95404934     0.25460
H4484       H  0.51989881  0.70642505  0.07969029     0.31400
H4485       H  0.94455181  0.71904039  0.05728786     0.37310
H4486       H  0.64240574  0.87138047  0.89604763     0.31770
H4487       H  0.56554145  0.88525025  0.87639040     0.30640
H4488       H  0.51422979  0.85634844  0.90018975     0.32320
H4489       H  0.93971080  0.76126295  0.00333222     0.31290
H4490       H  0.61488417  0.79713931  0.91737621     0.35290
H4491       H  0.57222587  0.78452812  0.88652449     0.28020
H4492       H  0.55700797  0.84364902  0.06546488     0.32260
H4493       H  0.95004141  0.76390525  0.05434771     0.35110
H4494       H  0.58563580  0.88982042  0.89664330     0.27720
H4495       H  0.56584265  0.75648982  0.90907505     0.40590
H4496       H  0.59172588  0.76761162  0.04103490     0.30640
H4497       H  0.62754867  0.81491623  0.98973270     0.38260
H4498       H  0.95719561  0.77546663  0.96708627     0.30110
H4499       H  0.49894839  0.71374675  0.07587299     0.30170
H4500       H  0.52746549  0.82091970  0.07195132     0.30440
Zr4501     Zr  0.80557961  0.57357746  0.01552034     2.17510
O4502       O  0.79200145  0.58731033  0.05581747    -0.51920
O4503       O  0.85144702  0.60831699  0.00641950    -0.75120
O4504       O  0.80133029  0.54867008  0.07174446    -0.81910
O4505       O  0.79555837  0.62048140  0.94998840    -0.83650
O4506       O  0.79002516  0.50605347  0.07888967    -0.79280
O4507       O  0.80265588  0.61295511  0.99995169    -0.90910
O4508       O  0.87702732  0.60832260  0.96615465    -0.76870
O4509       O  0.82742081  0.55196209  0.00750246    -0.86360
O4510       O  0.82713032  0.59430799  0.95837257    -0.86050
O4511       O  0.77114368  0.52628426  0.03342912    -0.72810
O4512       O  0.77158710  0.56549386  0.98923729    -0.84950
Zr4513     Zr  0.78188663  0.51737825  0.93991698     2.26420
Zr4514     Zr  0.79334608  0.50483468  0.02428038     2.06270
Zr4515     Zr  0.79358054  0.58592664  0.93208745     2.10050
Zr4516     Zr  0.84843528  0.57241999  0.95002982     1.78760
O4517       O  0.75913581  0.59239456  0.91933914    -0.93750
O4518       O  0.87690471  0.55911243  0.97122637    -0.41560
O4519       O  0.81560297  0.56470043  0.92203904    -0.78190
O4520       O  0.81555625  0.52533776  0.96678143    -0.96880
O4521       O  0.76028832  0.49688027  0.99705384    -0.90180
O4522       O  0.76021753  0.53895617  0.94861086    -0.93020
C4523       C  0.87368717  0.61788198  0.98672387     1.00730
C4524       C  0.79883857  0.62618527  0.97534199     1.13660
C4525       C  0.79377379  0.52432689  0.08989837     1.04440
O4526       O  0.82895636  0.50136844  0.03874323    -0.95180
O4527       O  0.79114536  0.96990184  0.00643134    -0.90920
O4528       O  0.78196703  0.97612326  0.95770293    -0.84070
C4529       C  0.78645059  0.96319735  0.98188173     1.11080
O4530       O  0.71833730  0.53152336  0.03996084    -0.97150
Zr4531     Zr  0.73855128  0.51826069  0.00560514     1.88940
O4532       O  0.73648589  0.98156807  0.94962144    -0.73800
O4533       O  0.75943160  0.95906300  0.06325063    -0.53060
O4534       O  0.71233793  0.98084835  0.05897867    -0.97740
O4535       O  0.70661302  0.52508902  0.98357254    -0.54960
O4536       O  0.71211404  0.97849839  0.99427078    -0.74320
C4537       C  0.71503979  0.97000095  0.97222636     0.98030
O4538       O  0.80294654  0.51226883  0.89558374    -0.63140
O4539       O  0.82878753  0.62837056  0.88804180    -0.57940
O4540       O  0.77899009  0.53916242  0.88625951    -0.94620
O4541       O  0.78823517  0.58093556  0.88107659    -0.93050
O4542       O  0.87605786  0.61227215  0.89909649    -0.93410
O4543       O  0.87039429  0.56431412  0.91044335    -0.92190
C4544       C  0.78277577  0.56238441  0.87015670     1.16870
H4545       H  0.83936354  0.61366215  0.95103809     0.32810
H4546       H  0.82435264  0.51698086  0.96176663     0.43670
H4547       H  0.74795084  0.53662724  0.93599015     0.37190
H4548       H  0.76153996  0.51891740  0.05612290     0.33670
H4549       H  0.89487204  0.57452962  0.95774053     0.25460
H4550       H  0.76770239  0.95449185  0.07980814     0.31400
H4551       H  0.69437771  0.97094103  0.05709440     0.37310
H4552       H  0.89412283  0.61964657  0.90069238     0.31770
H4553       H  0.81984147  0.63622345  0.87645595     0.30640
H4554       H  0.76830469  0.60978331  0.89992588     0.32320
H4555       H  0.68946800  0.51034955  0.99988776     0.31290
H4556       H  0.85741253  0.55632423  0.89899574     0.35290
H4557       H  0.81520602  0.53094845  0.87891096     0.28020
H4558       H  0.80547990  0.59229314  0.06750559     0.32260
H4559       H  0.69960149  0.51655525  0.04930445     0.35110
H4560       H  0.83824634  0.64052536  0.89899501     0.27720
H4561       H  0.81476023  0.50718312  0.90400760     0.40590
H4562       H  0.83753233  0.51523533  0.04791921     0.30640
H4563       H  0.87567916  0.55981670  0.99314323     0.38260
H4564       H  0.70595675  0.52021406  0.96431945     0.30110
H4565       H  0.74638049  0.96103712  0.07477918     0.30170
H4566       H  0.77591012  0.57067721  0.07226548     0.30440
Zr4567     Zr  0.80666585  0.82496841  0.01425005     2.17510
O4568       O  0.79393214  0.83880885  0.05502899    -0.51920
O4569       O  0.85231731  0.86120956  0.00235405    -0.75120
O4570       O  0.80630709  0.80266158  0.06923880    -0.81910
O4571       O  0.79129612  0.86801585  0.95054175    -0.83650
O4572       O  0.79696521  0.76048153  0.07724298    -0.79280
O4573       O  0.80000638  0.86189319  0.99943589    -0.90910
O4574       O  0.87747605  0.86063030  0.96219755    -0.76870
O4575       O  0.82994771  0.80500907  0.00498044    -0.86360
O4576       O  0.82617598  0.84485530  0.95667592    -0.86050
O4577       O  0.77394832  0.77700782  0.03464156    -0.72810
O4578       O  0.77076830  0.81388774  0.99120643    -0.84950
Zr4579     Zr  0.78184127  0.76519634  0.94313781     2.26420
Zr4580     Zr  0.79754241  0.75715247  0.02428409     2.06270
Zr4581     Zr  0.79062496  0.83332329  0.93358260     2.10050
Zr4582     Zr  0.84870330  0.82433334  0.94712551     1.78760
O4583       O  0.75434001  0.83688235  0.92244614    -0.93750
O4584       O  0.87946274  0.81324588  0.96483134    -0.41560
O4585       O  0.81372016  0.81328066  0.92269794    -0.78190
O4586       O  0.81760216  0.77663261  0.96642658    -0.96880
O4587       O  0.76216124  0.74563846  0.00064390    -0.90180
O4588       O  0.75893461  0.78553108  0.95250245    -0.93020
C4589       C  0.87430004  0.87054587  0.98234564     1.00730
C4590       C  0.79513634  0.87441766  0.97541010     1.13660
C4591       C  0.80074107  0.77915198  0.08734675     1.04440
O4592       O  0.83443927  0.75583257  0.03750668    -0.95180
O4593       O  0.79825559  0.72319665  0.00718303    -0.90920
O4594       O  0.78523295  0.72580141  0.96101059    -0.84070
C4595       C  0.79270305  0.71531841  0.98369648     1.11080
O4596       O  0.71885655  0.77386352  0.05141910    -0.97150
Zr4597     Zr  0.73937971  0.76602882  0.00989724     1.88940
O4598       O  0.73637325  0.72818325  0.95541531    -0.73800
O4599       O  0.76489994  0.71207201  0.06597593    -0.53060
O4600       O  0.71526058  0.72564834  0.06084836    -0.97740
O4601       O  0.70743135  0.77580270  0.99365059    -0.54960
O4602       O  0.71107631  0.72939220  0.99466751    -0.74320
C4603       C  0.71425056  0.71887605  0.97522128     0.98030
O4604       O  0.80265925  0.76019474  0.89841343    -0.63140
O4605       O  0.82372262  0.87590470  0.88800540    -0.57940
O4606       O  0.77700539  0.78476168  0.89027035    -0.94620
O4607       O  0.78499865  0.82609885  0.88374404    -0.93050
O4608       O  0.87350250  0.86406598  0.89561923    -0.93410
O4609       O  0.87053913  0.81753579  0.90575691    -0.92190
C4610       C  0.77997800  0.80732967  0.87328444     1.16870
H4611       H  0.83781144  0.86435848  0.94857986     0.32810
H4612       H  0.82710165  0.76909779  0.96082571     0.43670
H4613       H  0.74583300  0.78188122  0.94102144     0.37190
H4614       H  0.76526729  0.76993035  0.05765101     0.33670
H4615       H  0.89698692  0.82984854  0.95194548     0.25460
H4616       H  0.77464179  0.70770183  0.08037466     0.31400
H4617       H  0.69695681  0.71597391  0.06002267     0.37310
H4618       H  0.89193875  0.87275142  0.89600357     0.31770
H4619       H  0.81365282  0.88212650  0.87647243     0.30640
H4620       H  0.76250388  0.85376415  0.90251469     0.32320
H4621       H  0.69033432  0.75814960  0.00410259     0.31290
H4622       H  0.85637846  0.80609638  0.89783858     0.35290
H4623       H  0.81381150  0.77867465  0.88087462     0.28020
H4624       H  0.80834754  0.84516313  0.06512494     0.32260
H4625       H  0.69994496  0.75949203  0.05851675     0.35110
H4626       H  0.83265510  0.88898301  0.89809725     0.27720
H4627       H  0.81557282  0.75655743  0.90592117     0.40590
H4628       H  0.84410865  0.77149542  0.04361532     0.30640
H4629       H  0.87776545  0.81230310  0.98751474     0.38260
H4630       H  0.71060804  0.77977601  0.96995538     0.30110
H4631       H  0.75345095  0.71474922  0.07949263     0.30170
H4632       H  0.77878223  0.82199667  0.07258748     0.30440
Zr4633     Zr  0.49808387  0.58155723  0.59504194     2.17510
O4634       O  0.98818629  0.60512932  0.54999641    -0.51920
O4635       O  0.96094342  0.53520287  0.61047009    -0.75120
O4636       O  0.50496543  0.57081677  0.54809826    -0.81910
O4637       O  0.96466819  0.59524980  0.65623965    -0.83650
O4638       O  0.54352749  0.57401931  0.54240194    -0.79280
O4639       O  0.96321381  0.58751168  0.60948057    -0.90910
O4640       O  0.96916517  0.50751175  0.64644262    -0.76870
O4641       O  0.51774633  0.55651880  0.60648947    -0.86360
O4642       O  0.98487780  0.55968338  0.65327681    -0.86050
O4643       O  0.54435502  0.61481224  0.57059804    -0.72810
O4644       O  0.51415706  0.61712392  0.61507523    -0.84950
Zr4645     Zr  0.56678019  0.60158151  0.66143722     2.26420
Zr4646     Zr  0.56377044  0.58916408  0.58314888     2.06270
Zr4647     Zr  0.50132863  0.59500681  0.67337751     2.10050
Zr4648     Zr  0.50486537  0.53482070  0.66437166     1.78760
O4649       O  0.50621562  0.63483858  0.67983912    -0.93750
O4650       O  0.51405943  0.50292304  0.65497767    -0.41560
O4651       O  0.52071938  0.56941942  0.68508375    -0.78190
O4652       O  0.55121362  0.56604273  0.64155883    -0.96880
O4653       O  0.58035918  0.62425630  0.60353590    -0.90180
O4654       O  0.54768363  0.62735656  0.65102939    -0.93020
C4655       C  0.95576360  0.51173548  0.62821468     1.00730
C4656       C  0.95472546  0.59227806  0.63248958     1.13660
C4657       C  0.52257139  0.56871958  0.53388886     1.04440
O4658       O  0.57283885  0.55845175  0.56986126    -0.95180
O4659       O  0.60220901  0.59142999  0.59716892    -0.90920
O4660       O  0.60347178  0.59903401  0.64365322    -0.84070
C4661       C  0.61266939  0.59507239  0.62031775     1.11080
O4662       O  0.54743113  0.67232043  0.55176932    -0.97150
Zr4663     Zr  0.56057408  0.64922404  0.59280446     1.88940
O4664       O  0.60214830  0.64741331  0.64982492    -0.73800
O4665       O  0.59729662  0.62715265  0.53348758    -0.53060
O4666       O  0.59525825  0.67552236  0.54101852    -0.97740
O4667       O  0.55608120  0.68304261  0.60506117    -0.54960
O4668       O  0.60018813  0.67610974  0.60648886    -0.74320
C4669       C  0.61120406  0.67102054  0.62807063     0.98030
O4670       O  0.57996451  0.58227648  0.70621704    -0.63140
O4671       O  0.96268236  0.56452637  0.72091481    -0.57940
O4672       O  0.55208824  0.59701695  0.71631573    -0.94620
O4673       O  0.51140343  0.58925761  0.72584444    -0.93050
O4674       O  0.96692147  0.50726363  0.71274674    -0.93410
O4675       O  0.51310077  0.51138327  0.71147494    -0.92190
C4676       C  0.53110781  0.59096731  0.73525453     1.16870
H4677       H  0.96605479  0.54780563  0.66212964     0.32810
H4678       H  0.55931516  0.55606732  0.64735724     0.43670
H4679       H  0.55375435  0.64018939  0.66131271     0.37190
H4680       H  0.54810063  0.62320917  0.54716591     0.33670
H4681       H  0.49741803  0.48492825  0.66647818     0.25460
H4682       H  0.60959767  0.62194396  0.52839441     0.31400
H4683       H  0.60586311  0.69406115  0.54057673     0.37310
H4684       H  0.95875384  0.48848028  0.71398426     0.31770
H4685       H  0.95704165  0.57611201  0.72506250     0.30640
H4686       H  0.99932288  0.62890275  0.70372178     0.32320
H4687       H  0.57291036  0.70055074  0.59212494     0.31290
H4688       H  0.53231215  0.52261128  0.70723765     0.35290
H4689       H  0.57913484  0.56661627  0.70333877     0.28020
H4690       H  0.97419107  0.59065809  0.54502786     0.32260
H4691       H  0.56244511  0.69150177  0.54121277     0.35110
H4692       H  0.94895096  0.55239921  0.71311895     0.27720
H4693       H  0.59877808  0.59585197  0.70202611     0.40590
H4694       H  0.56178450  0.54101862  0.58917851     0.30640
H4695       H  0.51592955  0.50671349  0.63142721     0.38260
H4696       H  0.55625176  0.67965066  0.62807507     0.30110
H4697       H  0.58847440  0.62614568  0.51609012     0.30170
H4698       H  0.50379254  0.61490107  0.53083968     0.30440
Zr4699     Zr  0.50579758  0.82688409  0.59269057     2.17510
O4700       O  0.50052215  0.85249532  0.54418258    -0.51920
O4701       O  0.96776023  0.78228992  0.60546057    -0.75120
O4702       O  0.51536786  0.81687924  0.54670221    -0.81910
O4703       O  0.96897684  0.83810132  0.65218236    -0.83650
O4704       O  0.55314939  0.81855091  0.54392908    -0.79280
O4705       O  0.96974939  0.83161043  0.60467495    -0.90910
O4706       O  0.96925708  0.75246433  0.64794894    -0.76870
O4707       O  0.52371463  0.80025339  0.60666366    -0.86360
O4708       O  0.98966540  0.80418666  0.65081914    -0.86050
O4709       O  0.55228372  0.85847145  0.57114182    -0.72810
O4710       O  0.52004348  0.86190211  0.61318874    -0.84950
Zr4711     Zr  0.56916637  0.84377934  0.66521743     2.26420
Zr4712     Zr  0.57019600  0.83162480  0.58713465     2.06270
Zr4713     Zr  0.50499290  0.83896411  0.67154866     2.10050
Zr4714     Zr  0.50766349  0.77764518  0.66444579     1.78760
O4715       O  0.50963598  0.87921080  0.67630034    -0.93750
O4716       O  0.51320982  0.74480273  0.65121007    -0.41560
O4717       O  0.52278664  0.81210599  0.68583405    -0.78190
O4718       O  0.55443628  0.80831298  0.64523765    -0.96880
O4719       O  0.58516296  0.86657486  0.60734948    -0.90180
O4720       O  0.55123400  0.87043641  0.65163300    -0.93020
C4721       C  0.95842100  0.75837732  0.62660945     1.00730
C4722       C  0.95998271  0.83536982  0.62777307     1.13660
C4723       C  0.53322754  0.81461630  0.53366490     1.04440
O4724       O  0.57768256  0.79764712  0.58161969    -0.95180
O4725       O  0.60782834  0.83526320  0.60533763    -0.90920
O4726       O  0.60871917  0.84549237  0.65013167    -0.84070
C4727       C  0.61821941  0.84069227  0.62807618     1.11080
O4728       O  0.55632362  0.91546181  0.54814124    -0.97150
Zr4729     Zr  0.56654170  0.89246754  0.59337313     1.88940
O4730       O  0.60409119  0.88955559  0.65633338    -0.73800
O4731       O  0.60639575  0.86690401  0.53813911    -0.53060
O4732       O  0.60441771  0.91885513  0.54501101    -0.97740
O4733       O  0.56142783  0.92701530  0.60220866    -0.54960
O4734       O  0.60298947  0.91805148  0.61168440    -0.74320
C4735       C  0.61290759  0.91325845  0.63467565     0.98030
O4736       O  0.57324844  0.81331678  0.70971199    -0.63140
O4737       O  0.96498593  0.80976992  0.71732278    -0.57940
O4738       O  0.55498483  0.84311679  0.71777382    -0.94620
O4739       O  0.51352281  0.83342163  0.72474621    -0.93050
O4740       O  0.97173192  0.75097419  0.71498699    -0.93410
O4741       O  0.51554573  0.75181509  0.70976551    -0.92190
C4742       C  0.53311105  0.83633271  0.73531197     1.16870
H4743       H  0.97077231  0.79295396  0.65844091     0.32810
H4744       H  0.56224488  0.79817561  0.65206909     0.43670
H4745       H  0.55672626  0.88328271  0.66190626     0.37190
H4746       H  0.55717535  0.86697702  0.54755479     0.33670
H4747       H  0.49721738  0.72692849  0.66551927     0.25460
H4748       H  0.61298810  0.85731633  0.53009179     0.31400
H4749       H  0.61416274  0.93740370  0.54471303     0.37310
H4750       H  0.96173534  0.73242596  0.71531623     0.31770
H4751       H  0.95836199  0.82131270  0.71828851     0.30640
H4752       H  0.00261338  0.87369015  0.70004605     0.32320
H4753       H  0.57869963  0.94427555  0.59036384     0.31290
H4754       H  0.53376047  0.75724521  0.70145825     0.35290
H4755       H  0.55505345  0.79995228  0.72400400     0.28020
H4756       H  0.98870521  0.83886797  0.53625602     0.32260
H4757       H  0.57135755  0.93464661  0.53836536     0.35110
H4758       H  0.95225677  0.79628472  0.70994617     0.27720
H4759       H  0.57657769  0.80243926  0.69991939     0.40590
H4760       H  0.56052464  0.78020186  0.59311234     0.30640
H4761       H  0.51133293  0.74740501  0.62889048     0.38260
H4762       H  0.55995290  0.92352379  0.62563346     0.30110
H4763       H  0.59811955  0.87173588  0.52175983     0.30170
H4764       H  0.51774725  0.86334607  0.52738793     0.30440
Zr4765     Zr  0.74877724  0.57995225  0.59451333     2.17510
O4766       O  0.73901515  0.60277305  0.54856100    -0.51920
O4767       O  0.71209111  0.53373275  0.60909532    -0.75120
O4768       O  0.75678550  0.56950143  0.54782440    -0.81910
O4769       O  0.71396543  0.59281018  0.65505624    -0.83650
O4770       O  0.79675118  0.57544037  0.54049107    -0.79280
O4771       O  0.71318942  0.58498427  0.60857474    -0.90910
O4772       O  0.71783334  0.50594177  0.64861857    -0.76870
O4773       O  0.76891449  0.55542237  0.60615777    -0.86360
O4774       O  0.73488482  0.55768131  0.65271385    -0.86050
O4775       O  0.79494159  0.61371918  0.57065562    -0.72810
O4776       O  0.76364275  0.61514432  0.61507527    -0.84950
Zr4777     Zr  0.81581542  0.60010648  0.66255796     2.26420
Zr4778     Zr  0.81495389  0.58866492  0.58345732     2.06270
Zr4779     Zr  0.75023081  0.59258225  0.67343086     2.10050
Zr4780     Zr  0.75525832  0.53327296  0.66411547     1.78760
O4781       O  0.75460420  0.63184208  0.68108336    -0.93750
O4782       O  0.76293153  0.50113047  0.65245439    -0.41560
O4783       O  0.76986139  0.56729049  0.68582334    -0.78190
O4784       O  0.80154458  0.56518315  0.64184015    -0.96880
O4785       O  0.83002706  0.62316059  0.60465992    -0.90180
O4786       O  0.79637963  0.62549376  0.65151434    -0.93020
C4787       C  0.70525649  0.51017131  0.62898806     1.00730
C4788       C  0.70419300  0.58974327  0.63123048     1.13660
C4789       C  0.77542984  0.56926013  0.53263946     1.04440
O4790       O  0.82398221  0.55681385  0.57366972    -0.95180
O4791       O  0.85394886  0.59301865  0.59822399    -0.90920
O4792       O  0.85413167  0.60022596  0.64529377    -0.84070
C4793       C  0.86392269  0.59695775  0.62169247     1.11080
O4794       O  0.79616204  0.67052709  0.55296448    -0.97150
Zr4795     Zr  0.80997262  0.64775874  0.59333986     1.88940
O4796       O  0.85168416  0.64564501  0.65056450    -0.73800
O4797       O  0.84934724  0.62620271  0.53410183    -0.53060
O4798       O  0.84440095  0.67434424  0.54128840    -0.97740
O4799       O  0.80583204  0.68171473  0.60573987    -0.54960
O4800       O  0.84968793  0.67423404  0.60706325    -0.74320
C4801       C  0.86077461  0.66915263  0.62856224     0.98030
O4802       O  0.82515704  0.57540375  0.70749136    -0.63140
O4803       O  0.71040167  0.56239936  0.71945089    -0.57940
O4804       O  0.80357308  0.60177857  0.71433189    -0.94620
O4805       O  0.76047959  0.58578493  0.72597394    -0.93050
O4806       O  0.71901257  0.50592766  0.71439536    -0.93410
O4807       O  0.76497516  0.50951457  0.70915185    -0.92190
C4808       C  0.78145969  0.59162513  0.73457051     1.16870
H4809       H  0.71605581  0.54568258  0.66128982     0.32810
H4810       H  0.81000090  0.55559091  0.64769024     0.43670
H4811       H  0.80212516  0.63827497  0.66187802     0.37190
H4812       H  0.79882815  0.62222507  0.54721430     0.33670
H4813       H  0.74696789  0.48306408  0.66627419     0.25460
H4814       H  0.85813263  0.61849357  0.52573491     0.31400
H4815       H  0.85502506  0.69282729  0.54100473     0.37310
H4816       H  0.71043895  0.48710252  0.71567293     0.31770
H4817       H  0.70521923  0.57432315  0.72356239     0.30640
H4818       H  0.74676318  0.62524220  0.70489109     0.32320
H4819       H  0.82257511  0.69920887  0.59244633     0.31290
H4820       H  0.78408825  0.52147996  0.70505537     0.35290
H4821       H  0.80838720  0.56281923  0.72524888     0.28020
H4822       H  0.72624385  0.58819644  0.54256262     0.32260
H4823       H  0.81116772  0.68969261  0.54202282     0.35110
H4824       H  0.69682953  0.55105669  0.71078715     0.27720
H4825       H  0.82787511  0.56307117  0.70014621     0.40590
H4826       H  0.80869541  0.53871658  0.58879100     0.30640
H4827       H  0.76196076  0.50367667  0.62980109     0.38260
H4828       H  0.80640273  0.67852409  0.62860077     0.30110
H4829       H  0.84007025  0.62910180  0.51802994     0.30170
H4830       H  0.75524680  0.61354668  0.53004973     0.30440
Zr4831     Zr  0.75620258  0.82882033  0.59413064     2.17510
O4832       O  0.75273940  0.85701556  0.54617371    -0.51920
O4833       O  0.71774671  0.78445400  0.60664194    -0.75120
O4834       O  0.76417591  0.81879207  0.54782650    -0.81910
O4835       O  0.72208778  0.84311780  0.65204466    -0.83650
O4836       O  0.80142842  0.81943317  0.54469125    -0.79280
O4837       O  0.72060627  0.83385835  0.60655015    -0.90910
O4838       O  0.71936780  0.75435801  0.64865240    -0.76870
O4839       O  0.77341943  0.80149851  0.60761256    -0.86360
O4840       O  0.74035049  0.80607372  0.65217143    -0.86050
O4841       O  0.80268835  0.85983309  0.57212104    -0.72810
O4842       O  0.77146310  0.86391517  0.61440622    -0.84950
Zr4843     Zr  0.82082350  0.84497010  0.66583909     2.26420
Zr4844     Zr  0.81982812  0.83230957  0.58756649     2.06270
Zr4845     Zr  0.75668948  0.84094715  0.67258558     2.10050
Zr4846     Zr  0.75790739  0.77907499  0.66538441     1.78760
O4847       O  0.76255068  0.88095378  0.67957414    -0.93750
O4848       O  0.76259003  0.74570556  0.65234827    -0.41560
O4849       O  0.77422644  0.81362454  0.68665792    -0.78190
O4850       O  0.80470421  0.80921700  0.64600240    -0.96880
O4851       O  0.83620909  0.86749809  0.60780320    -0.90180
O4852       O  0.80320712  0.87205168  0.65260228    -0.93020
C4853       C  0.70845063  0.76041930  0.62748620     1.00730
C4854       C  0.71219437  0.83956132  0.62841724     1.13660
C4855       C  0.78139915  0.81589256  0.53468648     1.04440
O4856       O  0.82649113  0.79828711  0.58031473    -0.95180
O4857       O  0.85705390  0.83400312  0.60430978    -0.90920
O4858       O  0.85715855  0.84080811  0.65159654    -0.84070
C4859       C  0.86657662  0.83692207  0.62831316     1.11080
O4860       O  0.81008567  0.91758341  0.54686459    -0.97150
Zr4861     Zr  0.81798730  0.89391231  0.59425541     1.88940
O4862       O  0.85626893  0.89119758  0.65530199    -0.73800
O4863       O  0.85575147  0.86788070  0.53843148    -0.53060
O4864       O  0.85717284  0.92034675  0.54760698    -0.97740
O4865       O  0.81055502  0.92732466  0.60232711    -0.54960
O4866       O  0.85347949  0.92021956  0.61315380    -0.74320
C4867       C  0.86401379  0.91505233  0.63511770     0.98030
O4868       O  0.83314114  0.82339476  0.70969755    -0.63140
O4869       O  0.71585814  0.81187237  0.71710562    -0.57940
O4870       O  0.80451446  0.84146250  0.71975696    -0.94620
O4871       O  0.76367524  0.83330841  0.72630684    -0.93050
O4872       O  0.72232883  0.75296646  0.71621328    -0.93410
O4873       O  0.76647225  0.75292330  0.70935329    -0.92190
C4874       C  0.78286512  0.83523975  0.73705407     1.16870
H4875       H  0.72145791  0.79507718  0.65990888     0.32810
H4876       H  0.81204764  0.79860000  0.65292328     0.43670
H4877       H  0.80887467  0.88490603  0.66287086     0.37190
H4878       H  0.80747844  0.86833980  0.54854530     0.33670
H4879       H  0.74623213  0.72801741  0.66624345     0.25460
H4880       H  0.86429685  0.85920140  0.53222439     0.31400
H4881       H  0.86631195  0.93902975  0.54690022     0.37310
H4882       H  0.71204175  0.73438682  0.71669482     0.31770
H4883       H  0.71007792  0.82395200  0.71876239     0.30640
H4884       H  0.75460550  0.87461704  0.70328996     0.32320
H4885       H  0.82797010  0.94465543  0.59286244     0.31290
H4886       H  0.77935956  0.76650237  0.71648683     0.35290
H4887       H  0.84181445  0.83637060  0.72002828     0.28020
H4888       H  0.73915384  0.84416516  0.53895241     0.32260
H4889       H  0.82462052  0.93692681  0.53865501     0.35110
H4890       H  0.70300284  0.79953629  0.70862327     0.27720
H4891       H  0.81667741  0.80775783  0.72660531     0.40590
H4892       H  0.80973551  0.78076660  0.59341523     0.30640
H4893       H  0.76116860  0.74869577  0.62980292     0.38260
H4894       H  0.80664802  0.92257649  0.62621737     0.30110
H4895       H  0.84726561  0.87047029  0.52120376     0.30170
H4896       H  0.76929338  0.86605707  0.52877193     0.30440
C4897       C  0.93092492  0.71168575  0.62961293    -0.20890
C4898       C  0.93335934  0.73606378  0.62656396    -0.07460
C4899       C  0.91178243  0.73842395  0.62421427     0.13410
C4900       C  0.88837329  0.71628728  0.62467603    -0.20940
C4901       C  0.88592464  0.69185913  0.62786846    -0.07460
C4902       C  0.90754871  0.68956768  0.63013247     0.13400
C4903       C  0.90652002  0.66428646  0.63191822    -0.24290
H4904       H  0.94756010  0.71006501  0.63123535     0.14690
H4905       H  0.87171548  0.71786902  0.62309515     0.14720
C4906       C  0.91289505  0.76373120  0.62252276    -0.24240
H4907       H  0.92580748  0.66691231  0.63108314     0.04930
H4908       H  0.90074590  0.65932254  0.61085120     0.08150
H4909       H  0.89230852  0.64700506  0.65519859     0.08150
H4910       H  0.92729459  0.78108708  0.59938579     0.08140
H4911       H  0.91851422  0.76854769  0.64373431     0.08140
H4912       H  0.89367240  0.76121576  0.62312816     0.04910
C4913       C  0.68076128  0.96174311  0.63776834    -0.20890
C4914       C  0.68134888  0.98584066  0.62990263    -0.07460
C4915       C  0.65882076  0.98551149  0.62511937     0.13410
C4916       C  0.63656795  0.96119093  0.62791065    -0.20940
C4917       C  0.63610332  0.93719167  0.63554072    -0.07460
C4918       C  0.65847140  0.93744013  0.64069378     0.13400
C4919       C  0.65935300  0.91250617  0.64827967    -0.24290
H4920       H  0.69800648  0.96195169  0.64143661     0.14690
H4921       H  0.61932464  0.96089370  0.62401335     0.14720
C4922       C  0.65766173  0.51029754  0.61797185    -0.24240
H4923       H  0.67888451  0.91680922  0.64996525     0.04930
H4924       H  0.65495342  0.90467710  0.62874393     0.08150
H4925       H  0.64484569  0.89668856  0.67221152     0.08150
H4926       H  0.67176599  0.52631798  0.59387083     0.08140
H4927       H  0.66228905  0.51810132  0.63749318     0.08140
H4928       H  0.63793381  0.00570786  0.61693790     0.04910
C4929       C  0.91730604  0.82435252  0.65675963    -0.20890
C4930       C  0.93624470  0.83585555  0.62690408    -0.07460
C4931       C  0.93200858  0.84741202  0.59745588     0.13410
C4932       C  0.90907153  0.84729526  0.59886584    -0.20940
C4933       C  0.89024781  0.83609011  0.62881933    -0.07460
C4934       C  0.89445045  0.82428351  0.65819547     0.13400
C4935       C  0.87504643  0.81126067  0.69128006    -0.24290
H4936       H  0.92038436  0.81521677  0.67927141     0.14690
H4937       H  0.90597259  0.85638027  0.57635336     0.14720
C4938       C  0.95170604  0.86054435  0.56449333    -0.24240
H4939       H  0.88021637  0.80043152  0.71082721     0.04930
H4940       H  0.85521675  0.79624049  0.69109127     0.08150
H4941       H  0.87514616  0.82729337  0.69768200     0.08150
H4942       H  0.95300058  0.84493307  0.55858628     0.08140
H4943       H  0.97115594  0.87639786  0.56462242     0.08140
H4944       H  0.94604783  0.87038367  0.54460703     0.04910
C4945       C  0.65782225  0.84507743  0.59976534    -0.20890
C4946       C  0.64284105  0.84155485  0.62866380    -0.07460
C4947       C  0.65173542  0.83872674  0.65697190     0.13410
C4948       C  0.67461382  0.83881323  0.65550684    -0.20940
C4949       C  0.68909235  0.84145049  0.62692399    -0.07460
C4950       C  0.68070782  0.84514493  0.59834893     0.13400
C4951       C  0.69571251  0.84979600  0.56585078    -0.24290
H4952       H  0.65158386  0.84783387  0.57786048     0.14690
H4953       H  0.68081984  0.83597305  0.67742900     0.14720
C4954       C  0.63706442  0.83427486  0.68955862    -0.24240
H4955       H  0.68710223  0.85419806  0.54601103     0.04930
H4956       H  0.69532188  0.83136506  0.56741272     0.08150
H4957       H  0.71615345  0.86751772  0.55861393     0.08150
H4958       H  0.61759101  0.81507284  0.69847718     0.08140
H4959       H  0.63532247  0.85161085  0.68749236     0.08140
H4960       H  0.64712653  0.83236414  0.70855372     0.04910
C4961       C  0.91178697  0.94466424  0.62210477    -0.20890
C4962       C  0.88709297  0.93865291  0.63614352    -0.07460
C4963       C  0.88494806  0.95713634  0.64660894     0.13410
C4964       C  0.90777488  0.98145732  0.64272739    -0.20940
C4965       C  0.93248370  0.98747873  0.62864912    -0.07460
C4966       C  0.93460801  0.96898005  0.61816063     0.13400
C4967       C  0.96087046  0.97527015  0.60191006    -0.24290
H4968       H  0.91315289  0.93062561  0.61338769     0.14690
H4969       H  0.90639226  0.99558878  0.65121701     0.14720
C4970       C  0.85862001  0.95099098  0.66221736    -0.24240
H4971       H  0.95885372  0.95910581  0.59395226     0.04930
H4972       H  0.97279387  0.97701806  0.61921810     0.08150
H4973       H  0.97133963  0.99467651  0.57995100     0.08150
H4974       H  0.84799567  0.93168645  0.68432384     0.08140
H4975       H  0.84692172  0.94903837  0.64463402     0.08140
H4976       H  0.86051890  0.96730243  0.66976565     0.04910
C4977       C  0.68124649  0.71388725  0.62970767    -0.20890
C4978       C  0.68344310  0.73807544  0.62716281    -0.07460
C4979       C  0.66169834  0.74017398  0.62503150     0.13410
C4980       C  0.63842673  0.71804924  0.62508953    -0.20940
C4981       C  0.63622234  0.69380483  0.62778270    -0.07460
C4982       C  0.65798344  0.69175156  0.62998321     0.13400
C4983       C  0.65712194  0.66658071  0.63178178    -0.24290
H4984       H  0.69796102  0.71239505  0.63123133     0.14690
H4985       H  0.62168205  0.71948598  0.62361051     0.14720
C4986       C  0.66251379  0.76520271  0.62395126    -0.24240
H4987       H  0.67641294  0.66924838  0.63112426     0.04930
H4988       H  0.65142076  0.66154083  0.61072334     0.08150
H4989       H  0.64285889  0.64939117  0.65507574     0.08150
H4990       H  0.67694072  0.78275737  0.60101164     0.08140
H4991       H  0.66797315  0.76971906  0.64537698     0.08140
H4992       H  0.64324084  0.76256386  0.62457505     0.04910
C4993       C  0.93137420  0.60847669  0.59979667    -0.20890
C4994       C  0.93198771  0.59464655  0.63067843    -0.07460
C4995       C  0.91021362  0.58189672  0.65826215     0.13410
C4996       C  0.88847046  0.58308182  0.65420394    -0.20940
C4997       C  0.88766079  0.59652461  0.62331589    -0.07460
C4998       C  0.90957818  0.60971571  0.59578000     0.13400
C4999       C  0.91046145  0.62576216  0.56242015    -0.24290
H5000       H  0.94812280  0.61840614  0.57861723     0.14690
H5001       H  0.87169585  0.57298205  0.67538644     0.14720
C5002       C  0.90920873  0.56606930  0.69181190    -0.24240
H5003       H  0.92966448  0.63594104  0.54409416     0.04930
H5004       H  0.90724597  0.64167768  0.56367689     0.08150
H5005       H  0.89515042  0.61210754  0.55364649     0.08150
H5006       H  0.92461283  0.57990281  0.70029173     0.08140
H5007       H  0.91210576  0.54987004  0.69100623     0.08140
H5008       H  0.89009042  0.55623184  0.71013059     0.04910
C5009       C  0.66817230  0.58372319  0.60593472    -0.20890
C5010       C  0.68097802  0.59166634  0.62898143    -0.07460
C5011       C  0.67148004  0.60149771  0.64821859     0.13410
C5012       C  0.64956834  0.60246770  0.64427939    -0.20940
C5013       C  0.63664708  0.59437724  0.62138565    -0.07460
C5014       C  0.64642855  0.58499976  0.60175126     0.13400
C5015       C  0.63402014  0.57563774  0.57674850    -0.24290
H5016       H  0.67506048  0.57612855  0.59097559     0.14690
H5017       H  0.64239912  0.60954031  0.65969454     0.14720
C5018       C  0.68414208  0.61133939  0.67284468    -0.24240
H5019       H  0.64418006  0.56871009  0.56408380     0.04930
H5020       H  0.63496556  0.59259055  0.55768009     0.08150
H5021       H  0.61339531  0.55823892  0.58901789     0.08150
H5022       H  0.70499803  0.62816933  0.66053528     0.08140
H5023       H  0.68257783  0.59436508  0.69265033     0.08140
H5024       H  0.67454887  0.61919504  0.68459901     0.04910
C5025       C  0.77231922  0.80157029  0.79119755    -0.20890
C5026       C  0.77945702  0.82782236  0.77226143    -0.07460
C5027       C  0.78548179  0.84678279  0.78648934     0.13410
C5028       C  0.78470276  0.83914947  0.81958850    -0.20940
C5029       C  0.77831283  0.81294588  0.83891541    -0.07460
C5030       C  0.77155152  0.79370852  0.82431460     0.13400
C5031       C  0.76370360  0.76497168  0.84270993    -0.24290
H5032       H  0.76789895  0.78728452  0.77963572     0.14690
H5033       H  0.78980339  0.85417988  0.83003879     0.14720
C5034       C  0.79332890  0.87521237  0.76649778    -0.24240
H5035       H  0.75810966  0.75289688  0.82739516     0.04930
H5036       H  0.74653002  0.75454528  0.86446121     0.08150
H5037       H  0.78035534  0.76502467  0.85021053     0.08150
H5038       H  0.77725350  0.87449180  0.75654363     0.08140
H5039       H  0.81122868  0.88536483  0.74586248     0.08140
H5040       H  0.79750823  0.88763593  0.78136584     0.04910
C5041       C  0.77470174  0.90124306  0.96497408    -0.20890
C5042       C  0.79334028  0.89740422  0.97700439    -0.07460
C5043       C  0.80952888  0.91534989  0.99072900     0.13410
C5044       C  0.80633581  0.93604495  0.99243909    -0.20940
C5045       C  0.78767032  0.93985829  0.98052003    -0.07460
C5046       C  0.77158983  0.92206354  0.96657258     0.13400
C5047       C  0.75049783  0.92420832  0.95422041    -0.24290
H5048       H  0.76216742  0.88756412  0.95462899     0.14690
H5049       H  0.81899349  0.94980010  0.00262045     0.14720
C5050       C  0.83103583  0.91371260  0.00247356    -0.24240
H5051       H  0.73856454  0.90741522  0.94656822     0.04930
H5052       H  0.75937148  0.94351122  0.93254537     0.08150
H5053       H  0.73711603  0.92326093  0.97387044     0.08150
H5054       H  0.84411278  0.91450911  0.98265979     0.08140
H5055       H  0.82258599  0.89469176  0.02437523     0.08140
H5056       H  0.84320757  0.93082034  0.00953323     0.04910
C5057       C  0.77502195  0.67237745  0.97516879    -0.20890
C5058       C  0.79500904  0.69266980  0.98225405    -0.07460
C5059       C  0.81699430  0.69141386  0.98615109     0.13410
C5060       C  0.81787861  0.66959200  0.98363371    -0.20940
C5061       C  0.79753267  0.64921013  0.97684421    -0.07460
C5062       C  0.77570495  0.65054729  0.97292665     0.13400
C5063       C  0.75259260  0.62850275  0.96753159    -0.24290
H5064       H  0.75862866  0.67353691  0.97148181     0.14690
H5065       H  0.83467003  0.66858553  0.98659046     0.14720
C5066       C  0.84003878  0.71354859  0.99147025    -0.24240
H5067       H  0.73657395  0.63198859  0.96691192     0.04930
H5068       H  0.74466808  0.60855539  0.98769101     0.08150
H5069       H  0.75863820  0.62788197  0.94377498     0.08150
H5070       H  0.83398986  0.71428021  0.01517134     0.08140
H5071       H  0.84788240  0.73343323  0.97123309     0.08140
H5072       H  0.85609756  0.71010582  0.99209101     0.04910
C5073       C  0.80391356  0.58951054  0.77781502    -0.20890
C5074       C  0.78073718  0.58508297  0.76997944    -0.07460
C5075       C  0.75789994  0.57294946  0.79621020     0.13410
C5076       C  0.75892498  0.56524055  0.82881662    -0.20940
C5077       C  0.78194250  0.56909068  0.83596875    -0.07460
C5078       C  0.80475062  0.58171395  0.81019802     0.13400
C5079       C  0.83016163  0.58715242  0.81681843    -0.24290
H5080       H  0.82171545  0.59885263  0.75851917     0.14690
H5081       H  0.74166850  0.55614926  0.84891541     0.14720
C5082       C  0.73239413  0.56799424  0.79052162    -0.24240
H5083       H  0.84630679  0.59761259  0.79382599     0.04930
H5084       H  0.82775576  0.56770397  0.83104376     0.08150
H5085       H  0.83598660  0.60021459  0.83092540     0.08150
H5086       H  0.72480186  0.55321520  0.77880864     0.08140
H5087       H  0.73530933  0.58741624  0.77478192     0.08140
H5088       H  0.71717031  0.55939041  0.81381449     0.04910
C5089       C  0.94243353  0.67097024  0.98322491    -0.20890
C5090       C  0.94133474  0.69407565  0.97526438    -0.07460
C5091       C  0.91770027  0.69171150  0.97220521     0.13410
C5092       C  0.89567985  0.66625655  0.97742810    -0.20940
C5093       C  0.89675708  0.64315838  0.98533022    -0.07460
C5094       C  0.92040081  0.64550057  0.98831896     0.13400
C5095       C  0.92220942  0.62108435  0.99781142    -0.24290
H5096       H  0.96047211  0.67277786  0.98612659     0.14690
H5097       H  0.87766806  0.66448900  0.97444352     0.14720
C5098       C  0.91588205  0.71612697  0.96234556    -0.24240
H5099       H  0.94176911  0.62632397  0.00054412     0.04930
H5100       H  0.91890103  0.61265453  0.97872797     0.08150
H5101       H  0.90726339  0.60532109  0.02155377     0.08150
H5102       H  0.93096236  0.73186925  0.93868381     0.08140
H5103       H  0.91893221  0.72456023  0.98142012     0.08140
H5104       H  0.89640035  0.71088332  0.95928266     0.04910
C5105       C  0.65694899  0.91940827  0.95297723    -0.20890
C5106       C  0.64692992  0.89550022  0.98075236    -0.07460
C5107       C  0.65971913  0.89603561  0.00529296     0.13410
C5108       C  0.68211998  0.92069071  0.00169185    -0.20940
C5109       C  0.69208655  0.94461510  0.97393832    -0.07460
C5110       C  0.67933836  0.94403809  0.94935165     0.13400
C5111       C  0.68885769  0.96949707  0.91988054    -0.24290
H5112       H  0.64701590  0.91881061  0.93418699     0.14690
H5113       H  0.69204673  0.92130774  0.02048569     0.14720
C5114       C  0.65016960  0.87054563  0.03469575    -0.24240
H5115       H  0.67620407  0.96555118  0.90344095     0.04930
H5116       H  0.70904789  0.97786804  0.90562011     0.08150
H5117       H  0.68879996  0.98485467  0.92792610     0.08150
H5118       H  0.65026420  0.85523647  0.02657434     0.08140
H5119       H  0.62995244  0.86215111  0.04889412     0.08140
H5120       H  0.66278973  0.87445268  0.05117850     0.04910
C5121       C  0.52140899  0.83198329  0.82281659    -0.20890
C5122       C  0.52912558  0.81431829  0.83717322    -0.07460
C5123       C  0.53681632  0.80335699  0.81787210     0.13410
C5124       C  0.53691329  0.81058733  0.78523417    -0.20940
C5125       C  0.53002099  0.82870647  0.77068637    -0.07460
C5126       C  0.52168715  0.83924298  0.78973439     0.13400
C5127       C  0.51406617  0.85876200  0.77501459    -0.24290
H5128       H  0.51543348  0.84040616  0.83741762     0.14690
H5129       H  0.54291196  0.80224071  0.77068727     0.14720
C5130       C  0.54663672  0.78541962  0.83026726    -0.24240
H5131       H  0.50882488  0.86569815  0.79313641     0.04930
H5132       H  0.49683661  0.84874526  0.76626949     0.08150
H5133       H  0.53065201  0.87687736  0.75410381     0.08150
H5134       H  0.53103037  0.76613792  0.85071932     0.08140
H5135       H  0.56408710  0.79656018  0.83799974     0.08140
H5136       H  0.55274653  0.77987145  0.81104758     0.04910
C5137       C  0.89949494  0.92009549  0.96481046    -0.20890
C5138       C  0.89745356  0.89562863  0.98047789    -0.07460
C5139       C  0.91830300  0.89590461  0.99131765     0.13410
C5140       C  0.94070596  0.92084367  0.98671913    -0.20940
C5141       C  0.94274288  0.94532070  0.97103552    -0.07460
C5142       C  0.92195713  0.94502751  0.95999957     0.13400
C5143       C  0.92362457  0.97098147  0.94289092    -0.24290
H5144       H  0.88364126  0.91968422  0.95577980     0.14690
H5145       H  0.95638489  0.92122187  0.99616924     0.14720
C5146       C  0.91666963  0.86993963  0.00821618    -0.24240
H5147       H  0.90584042  0.96709519  0.93522145     0.04930
H5148       H  0.94083841  0.98433756  0.92069562     0.08150
H5149       H  0.92566883  0.98165377  0.95956967     0.08150
H5150       H  0.91448524  0.85930334  0.99145907     0.08140
H5151       H  0.89954279  0.85655517  0.03051494     0.08140
H5152       H  0.93453035  0.87381355  0.01567416     0.04910
C5153       C  0.66707610  0.69231418  0.97840332    -0.20890
C5154       C  0.69064556  0.69369933  0.97699370    -0.07460
C5155       C  0.69061497  0.67021517  0.98042870     0.13170
C5156       C  0.66734132  0.64616994  0.98473724    -0.20940
C5157       C  0.64387513  0.64480072  0.98591765    -0.07460
C5158       C  0.64375521  0.66825211  0.98239139     0.13400
C5159       C  0.61938117  0.66828032  0.98167972    -0.24290
H5160       H  0.66699377  0.71024159  0.97603150     0.14690
H5161       H  0.66745417  0.62826060  0.98703989     0.14720
C5162       C  0.71490119  0.67011956  0.98036414    -0.24240
H5163       H  0.62297468  0.68855839  0.97752107     0.04930
H5164       H  0.60422392  0.65362855  0.00548289     0.08150
H5165       H  0.61205785  0.66247115  0.96171598     0.08150
H5166       H  0.72294835  0.67649706  0.99967159     0.08140
H5167       H  0.72954672  0.68422437  0.95596109     0.08140
H5168       H  0.71096981  0.64963168  0.98518589     0.04910
C5169       C  0.55667304  0.93588967  0.99383864    -0.20890
C5170       C  0.53994490  0.94142091  0.97881435    -0.07460
C5171       C  0.52624041  0.92562003  0.96142595     0.13410
C5172       C  0.52917933  0.90464172  0.96040070    -0.20940
C5173       C  0.54565913  0.89894296  0.97575565    -0.07460
C5174       C  0.55997265  0.91523678  0.99227896     0.13400
C5175       C  0.57958707  0.91189276  0.00732769    -0.24290
H5176       H  0.56774033  0.94822373  0.00645833     0.14690
H5177       H  0.51824476  0.89236199  0.94764830     0.14720
C5178       C  0.50801811  0.93012058  0.94428608    -0.24240
H5179       H  0.59064728  0.92800819  0.01635046     0.04930
H5180       H  0.59398618  0.91305050  0.98882148     0.08150
H5181       H  0.56945473  0.89219614  0.02863373     0.08150
H5182       H  0.51922646  0.95023018  0.92344419     0.08140
H5183       H  0.99302473  0.92891593  0.96179613     0.08140
H5184       H  0.49762244  0.91461634  0.93416627     0.04910
C5185       C  0.52964992  0.65533426  0.95904037    -0.20890
C5186       C  0.53643740  0.64241841  0.98428192    -0.07460
C5187       C  0.54024510  0.65140395  0.01040975     0.13410
C5188       C  0.53914074  0.67382354  0.00907380    -0.20940
C5189       C  0.53337692  0.68740023  0.98321125    -0.07460
C5190       C  0.52763349  0.67718536  0.95828191     0.13400
C5191       C  0.51923640  0.68870749  0.93057982    -0.24290
H5192       H  0.52582344  0.64828802  0.93944564     0.14690
H5193       H  0.54282418  0.68075475  0.02877552     0.14720
C5194       C  0.54507948  0.63766873  0.04037892    -0.24240
H5195       H  0.51455164  0.67726294  0.91452250     0.04930
H5196       H  0.53522714  0.70997999  0.91489665     0.08150
H5197       H  0.50129837  0.68759054  0.94053633     0.08150
H5198       H  0.52788376  0.61649140  0.05348859     0.08140
H5199       H  0.56313729  0.63823617  0.03339893     0.08140
H5200       H  0.54769856  0.64770685  0.05789823     0.04910
C5201       C  0.51854481  0.58216163  0.82515562    -0.20890
C5202       C  0.53021778  0.56794833  0.83682545    -0.07460
C5203       C  0.54154935  0.56132466  0.81486317     0.13410
C5204       C  0.54080719  0.56882095  0.78247340    -0.20940
C5205       C  0.52949191  0.58322228  0.77060196    -0.07460
C5206       C  0.51789329  0.58974372  0.79236418     0.13400
C5207       C  0.50562327  0.60533585  0.78102618    -0.24290
H5208       H  0.50994208  0.58743254  0.84177795     0.14690
H5209       H  0.54933202  0.56334206  0.76608737     0.14720
C5210       C  0.55574691  0.54759773  0.82449308    -0.24240
H5211       H  0.49853318  0.60970772  0.80089276     0.04930
H5212       H  0.48858944  0.59334757  0.77305874     0.08150
H5213       H  0.52022936  0.62498663  0.76030890     0.08150
H5214       H  0.54186382  0.52682187  0.84349754     0.08140
H5215       H  0.57184842  0.55996278  0.83342159     0.08140
H5216       H  0.56466786  0.54553578  0.80353095     0.04910
C5217       C  0.75304815  0.79119856  0.46968734    -0.20890
C5218       C  0.77428099  0.79334159  0.45115332    -0.07460
C5219       C  0.79789458  0.80319322  0.46021629     0.13410
C5220       C  0.79930764  0.81031065  0.48731955    -0.20940
C5221       C  0.77804433  0.80802984  0.50604531    -0.07460
C5222       C  0.75441853  0.79821473  0.49692909     0.13400
C5223       C  0.73017220  0.79448398  0.51558785    -0.24290
H5224       H  0.73496308  0.78360369  0.46305105     0.14690
H5225       H  0.81745811  0.81792534  0.49379148     0.14720
C5226       C  0.82219576  0.80710405  0.44138556    -0.24240
H5227       H  0.71346566  0.78538782  0.50562422     0.04930
H5228       H  0.73408577  0.81444945  0.51367545     0.08150
H5229       H  0.72390704  0.78067455  0.54162557     0.08150
H5230       H  0.82812848  0.82080300  0.41539461     0.08140
H5231       H  0.81860162  0.78722125  0.44326612     0.08140
H5232       H  0.83900803  0.81651096  0.45107255     0.04910
C5233       C  0.80424203  0.78399024  0.16937988    -0.20890
C5234       C  0.77899634  0.76215349  0.18929013    -0.07460
C5235       C  0.76185997  0.74468126  0.17618426     0.13410
C5236       C  0.77030574  0.74977409  0.14308031    -0.20940
C5237       C  0.79522001  0.77227758  0.12281343    -0.07460
C5238       C  0.81247056  0.78953136  0.13613508     0.13400
C5239       C  0.83958560  0.81355293  0.11554156    -0.24290
H5240       H  0.81738797  0.79716053  0.17978512     0.14690
H5241       H  0.75698824  0.73681127  0.13260123     0.14720
C5242       C  0.73488091  0.72069912  0.19707894    -0.24240
H5243       H  0.85086937  0.82394074  0.13041518     0.04930
H5244       H  0.83847206  0.82865516  0.09608291     0.08150
H5245       H  0.85047969  0.80667897  0.10414612     0.08150
H5246       H  0.72331373  0.72778201  0.20642269     0.08140
H5247       H  0.73635693  0.70700141  0.21810096     0.08140
H5248       H  0.72418548  0.70886351  0.18303731     0.04910
C5249       C  0.74737908  0.53692451  0.50916358    -0.20890
C5250       C  0.77144935  0.56041215  0.50482503    -0.07460
C5251       C  0.79080155  0.57490366  0.47412409     0.13410
C5252       C  0.78593118  0.56511801  0.44910872    -0.20940
C5253       C  0.76205106  0.54141680  0.45364436    -0.07460
C5254       C  0.74250735  0.52719649  0.48408302     0.13400
C5255       C  0.71691609  0.00121667  0.49062628    -0.24290
H5256       H  0.73246054  0.52578461  0.53261059     0.14690
H5257       H  0.80087305  0.57611903  0.42570408     0.14720
C5258       C  0.81625963  0.60116336  0.46720714    -0.24240
H5259       H  0.70428469  0.99207864  0.51611732     0.04930
H5260       H  0.72063952  0.98622383  0.48688278     0.08150
H5261       H  0.70607080  0.00529971  0.47378357     0.08150
H5262       H  0.82775851  0.59745321  0.48323509     0.08140
H5263       H  0.81227132  0.61580334  0.47161854     0.08140
H5264       H  0.82845938  0.61060461  0.44141138     0.04910
C5265       C  0.76344728  0.87042706  0.35635806    -0.20890
C5266       C  0.76233973  0.86455988  0.32834259    -0.07460
C5267       C  0.75778462  0.87923821  0.30181808     0.13410
C5268       C  0.75491453  0.89995542  0.30375149    -0.20940
C5269       C  0.75608843  0.90588451  0.33176725    -0.07460
C5270       C  0.76058029  0.89111473  0.35832110     0.13400
C5271       C  0.76336848  0.89777377  0.38816029    -0.24290
H5272       H  0.76683825  0.85891563  0.37663622     0.14690
H5273       H  0.75153653  0.91145789  0.28345450     0.14720
C5274       C  0.75508784  0.87249170  0.27203921    -0.24240
H5275       H  0.76812205  0.88504245  0.40577655     0.04930
H5276       H  0.74476665  0.89408328  0.40103509     0.08150
H5277       H  0.77937132  0.91938666  0.38074780     0.08150
H5278       H  0.73896969  0.85092109  0.27947441     0.08140
H5279       H  0.77363829  0.87589444  0.25949499     0.08140
H5280       H  0.75057216  0.88533826  0.25419357     0.04910
C5281       C  0.78053362  0.63427267  0.32668646    -0.20890
C5282       C  0.75644898  0.61098533  0.33092838    -0.07460
C5283       C  0.73387566  0.61185527  0.33220994     0.13410
C5284       C  0.73600834  0.63601352  0.32969958    -0.20940
C5285       C  0.76010969  0.65924038  0.32556325    -0.07460
C5286       C  0.78267893  0.65840454  0.32406957     0.13400
C5287       C  0.80880593  0.68243318  0.32105820    -0.24290
H5288       H  0.79778237  0.63347441  0.32573080     0.14690
H5289       H  0.71877376  0.63684876  0.33089015     0.14720
C5290       C  0.70779108  0.58785074  0.33509589    -0.24240
H5291       H  0.82390470  0.67757082  0.32206819     0.04930
H5292       H  0.80690109  0.68879407  0.34144878     0.08150
H5293       H  0.81592312  0.69960230  0.29729259     0.08150
H5294       H  0.70052704  0.57070845  0.35894080     0.08140
H5295       H  0.70981412  0.58142285  0.31480623     0.08140
H5296       H  0.69275623  0.59279180  0.33379048     0.04910
C5297       C  0.75748221  0.98837348  0.18163551    -0.20890
C5298       C  0.77218477  0.50885636  0.19244473    -0.07460
C5299       C  0.79472041  0.53369141  0.16988858     0.13410
C5300       C  0.80205287  0.53734901  0.13717714    -0.20940
C5301       C  0.78734305  0.51705233  0.12594791    -0.07460
C5302       C  0.76465000  0.99215402  0.14866603     0.13400
C5303       C  0.74721414  0.96989254  0.13826855    -0.24290
H5304       H  0.74024269  0.96938282  0.19907302     0.14690
H5305       H  0.81912249  0.55666158  0.12001218     0.14720
C5306       C  0.81107834  0.55719337  0.17915249    -0.24240
H5307       H  0.72981248  0.95248920  0.15887689     0.04930
H5308       H  0.75822212  0.96212871  0.12938829     0.08150
H5309       H  0.74010895  0.97775841  0.11863145     0.08150
H5310       H  0.83135868  0.56206461  0.17508801     0.08140
H5311       H  0.80337306  0.55314870  0.20499893     0.08140
H5312       H  0.81165647  0.57527003  0.16355422     0.04910
C5313       C  0.54568399  0.80270413  0.45620843    -0.20890
C5314       C  0.52055168  0.79041694  0.45191103    -0.07460
C5315       C  0.99976938  0.78619786  0.47471170     0.13410
C5316       C  0.50473162  0.79424512  0.50090024    -0.20940
C5317       C  0.52986450  0.80643210  0.50530900    -0.07460
C5318       C  0.55066469  0.81065315  0.48243075     0.13400
C5319       C  0.57832396  0.82390295  0.48470608    -0.24290
H5320       H  0.56180975  0.80629419  0.43869565     0.14690
H5321       H  0.98856900  0.79064215  0.51835389     0.14720
C5322       C  0.97213863  0.77253871  0.47250624    -0.24240
H5323       H  0.59205239  0.82655718  0.46377325     0.04930
H5324       H  0.57911482  0.81108043  0.50736206     0.08150
H5325       H  0.58541124  0.84434031  0.48453202     0.08150
H5326       H  0.96543601  0.75219802  0.47260767     0.08140
H5327       H  0.97119161  0.78518501  0.44988978     0.08140
H5328       H  0.95827799  0.76966496  0.49348429     0.04910
C5329       C  0.89598755  0.75376856  0.35724349    -0.20890
C5330       C  0.91169278  0.76003893  0.32699106    -0.07460
C5331       C  0.90284406  0.76430046  0.29891921     0.13410
C5332       C  0.87900089  0.76240022  0.30201308    -0.20940
C5333       C  0.86359799  0.75666653  0.33210827    -0.07460
C5334       C  0.87220694  0.75204798  0.36026369     0.13400
C5335       C  0.85643835  0.74473078  0.39383105    -0.24290
H5336       H  0.90232126  0.75008588  0.37892586     0.14690
H5337       H  0.87265447  0.76611987  0.28035052     0.14720
C5338       C  0.91851152  0.77182029  0.26521586    -0.24240
H5339       H  0.86527435  0.73978082  0.41311874     0.04930
H5340       H  0.83635910  0.72663905  0.40006282     0.08150
H5341       H  0.85558363  0.76208477  0.39457934     0.08150
H5342       H  0.92032126  0.75496266  0.26457241     0.08140
H5343       H  0.93811964  0.79064455  0.25848662     0.08140
H5344       H  0.90907341  0.77577314  0.24620412     0.04910
C5345       C  0.61761982  0.74478438  0.35790191    -0.20890
C5346       C  0.61609274  0.76073028  0.32952169    -0.07460
C5347       C  0.63822118  0.77773987  0.30143141     0.13410
C5348       C  0.66105742  0.77799792  0.30231721    -0.20940
C5349       C  0.66254400  0.76197749  0.33060362    -0.07460
C5350       C  0.64052647  0.74509331  0.35877884     0.13400
C5351       C  0.64074022  0.72672393  0.38942294    -0.24290
H5352       H  0.60065533  0.73175303  0.37938277     0.14690
H5353       H  0.67802864  0.79102779  0.28083145     0.14720
C5354       C  0.63827572  0.79627054  0.27072033    -0.24240
H5355       H  0.62135638  0.71372673  0.40828999     0.04930
H5356       H  0.65521961  0.73904299  0.40015512     0.08150
H5357       H  0.64581220  0.71321757  0.38358068     0.08150
H5358       H  0.63229276  0.80915242  0.27659377     0.08140
H5359       H  0.62473112  0.78397728  0.25919337     0.08140
H5360       H  0.65796220  0.80991735  0.25244867     0.04910
C5361       C  0.55282772  0.79321751  0.13228957    -0.20890
C5362       C  0.54509295  0.77132898  0.12260399    -0.07460
C5363       C  0.53095945  0.74450408  0.14730684     0.13410
C5364       C  0.52420202  0.74052884  0.18030336    -0.20940
C5365       C  0.53049334  0.76237560  0.18911146    -0.07460
C5366       C  0.54543710  0.78903991  0.16507647     0.13400
C5367       C  0.55378000  0.81316605  0.17404601    -0.24290
H5368       H  0.56412940  0.81386079  0.11402616     0.14690
H5369       H  0.51327987  0.72019431  0.19933347     0.14720
C5370       C  0.52188239  0.71976085  0.13961400    -0.24240
H5371       H  0.56582650  0.83266019  0.15222298     0.04930
H5372       H  0.56560234  0.81338125  0.19133971     0.08150
H5373       H  0.53627485  0.81201114  0.18575964     0.08150
H5374       H  0.53893158  0.72114317  0.12606265     0.08140
H5375       H  0.50797072  0.71802032  0.12504248     0.08140
H5376       H  0.51147128  0.70077252  0.16213694     0.04910
C5377       C  0.53426581  0.55025973  0.49684568    -0.20890
C5378       C  0.51847851  0.55885175  0.50646021    -0.07460
C5379       C  0.99940146  0.55728169  0.48996162     0.13410
C5380       C  0.99712156  0.54767649  0.46460933    -0.20940
C5381       C  0.51314299  0.53932216  0.45479910    -0.07460
C5382       C  0.53197842  0.54058212  0.47170053     0.13400
C5383       C  0.54997293  0.53173118  0.46407769    -0.24290
H5384       H  0.54866256  0.55091277  0.50935181     0.14690
H5385       H  0.98266573  0.54690573  0.45215697     0.14720
C5386       C  0.98149769  0.56603967  0.49814335    -0.24240
H5387       H  0.56257833  0.53334088  0.48058261     0.04930
H5388       H  0.56327370  0.54491091  0.43874888     0.08150
H5389       H  0.53830070  0.51015387  0.46725396     0.08150
H5390       H  0.99331474  0.58763815  0.49481574     0.08140
H5391       H  0.96858552  0.55299233  0.52370590     0.08140
H5392       H  0.96858797  0.56425252  0.48202075     0.04910
C5393       C  0.50428585  0.88695917  0.36005317    -0.20890
C5394       C  0.50464285  0.90399447  0.33097927    -0.07460
C5395       C  0.50809654  0.89988991  0.30180655     0.13410
C5396       C  0.51153060  0.87900236  0.30244828    -0.20940
C5397       C  0.51132089  0.86209118  0.33149300    -0.07460
C5398       C  0.50767440  0.86606068  0.36068893     0.13400
C5399       C  0.50822166  0.84896456  0.39225544    -0.24290
H5400       H  0.50195270  0.89044722  0.38221610     0.14690
H5401       H  0.51389841  0.87548827  0.28031155     0.14720
C5402       C  0.50726039  0.91675898  0.27028638    -0.24240
H5403       H  0.50668246  0.85602431  0.41206190     0.04930
H5404       H  0.52686913  0.84999920  0.38846407     0.08150
H5405       H  0.99150902  0.82757909  0.40074372     0.08150
H5406       H  0.52404968  0.93818478  0.26125632     0.08140
H5407       H  0.98864378  0.91576732  0.27436923     0.08140
H5408       H  0.50839926  0.90937099  0.25069614     0.04910
C5409       C  0.53156366  0.63290194  0.32961412    -0.20890
C5410       C  0.50778396  0.61026251  0.33173421    -0.07460
C5411       C  0.98571230  0.61181379  0.33103198     0.13410
C5412       C  0.98792416  0.63594522  0.32855826    -0.20940
C5413       C  0.51163188  0.65849810  0.32664935    -0.07460
C5414       C  0.53375450  0.65702926  0.32729279     0.13400
C5415       C  0.55931427  0.68032833  0.32684404    -0.24290
H5416       H  0.54844748  0.63156862  0.33010781     0.14690
H5417       H  0.97102099  0.63725956  0.32813701     0.14720
C5418       C  0.96004009  0.58845777  0.33204206    -0.24240
H5419       H  0.57403627  0.67502136  0.32923615     0.04930
H5420       H  0.55609967  0.68590330  0.34755789     0.08150
H5421       H  0.56763848  0.69815292  0.30338378     0.08150
H5422       H  0.95184732  0.57109108  0.35593352     0.08140
H5423       H  0.96298666  0.58230896  0.31179902     0.08140
H5424       H  0.94541330  0.59386790  0.32934999     0.04910
C5425       C  0.89847124  0.52159679  0.34286597    -0.20890
C5426       C  0.90024283  0.50168101  0.33606293    -0.07460
C5427       C  0.87816812  0.98094266  0.33149076     0.13410
C5428       C  0.85524931  0.98108653  0.33332554    -0.20940
C5429       C  0.85368988  0.00129557  0.33980660    -0.07460
C5430       C  0.87575496  0.52189621  0.34450301     0.13400
C5431       C  0.87602382  0.54492736  0.35004090    -0.24290
H5432       H  0.91523981  0.53739469  0.34641868     0.14690
H5433       H  0.83837526  0.96524868  0.32977708     0.14720
C5434       C  0.87827656  0.95816088  0.32572043    -0.24240
H5435       H  0.89555966  0.56026348  0.35059603     0.04930
H5436       H  0.86190732  0.53698099  0.37399088     0.08150
H5437       H  0.87090548  0.55536836  0.33001960     0.08150
H5438       H  0.88324261  0.94767650  0.34589632     0.08140
H5439       H  0.89276801  0.96625400  0.30200423     0.08140
H5440       H  0.85886508  0.94286451  0.32478840     0.04910
C5441       C  0.65210972  0.52551934  0.30859857    -0.20890
C5442       C  0.65207599  0.50501028  0.33274505    -0.07460
C5443       C  0.62862061  0.98386461  0.35783837     0.13410
C5444       C  0.60573501  0.98386156  0.35831249    -0.20940
C5445       C  0.60579499  0.00439986  0.33414037    -0.07460
C5446       C  0.62927742  0.52557125  0.30911330     0.13400
C5447       C  0.63050823  0.54873392  0.28361107    -0.24290
H5448       H  0.67022123  0.54183575  0.28962171     0.14690
H5449       H  0.58765160  0.96762339  0.37737887     0.14720
C5450       C  0.62757737  0.96096856  0.38358826    -0.24240
H5451       H  0.65062568  0.56413295  0.26674031     0.04930
H5452       H  0.62432044  0.55892211  0.29573823     0.08150
H5453       H  0.61743517  0.54104642  0.26870362     0.08150
H5454       H  0.64091286  0.96900150  0.39811721     0.08140
H5455       H  0.63361907  0.95056687  0.37169728     0.08140
H5456       H  0.60754370  0.94568791  0.40073918     0.04910
C5457       C  0.54695497  0.53670541  0.13737700    -0.20890
C5458       C  0.53667444  0.51507476  0.12699724    -0.07460
C5459       C  0.51811192  0.98834572  0.15083016     0.13410
C5460       C  0.51008053  0.98432331  0.18372568    -0.20940
C5461       C  0.51965620  0.00625279  0.19327838    -0.07460
C5462       C  0.53860906  0.53271447  0.16992194     0.13400
C5463       C  0.55047987  0.55734113  0.17837866    -0.24290
H5464       H  0.56131011  0.55723795  0.11973409     0.14690
H5465       H  0.99606532  0.96399329  0.20207962     0.14720
C5466       C  0.50589941  0.96404104  0.14195273    -0.24240
H5467       H  0.54646706  0.57208372  0.16348684     0.04930
H5468       H  0.57199344  0.56714182  0.17273114     0.08150
H5469       H  0.54269944  0.55256335  0.20450519     0.08150
H5470       H  0.52130457  0.96164870  0.13154011     0.08140
H5471       H  0.49523892  0.96661991  0.12400518     0.08140
H5472       H  0.99162088  0.94497636  0.16362920     0.04910
loop_ 
_geom_bond_atom_site_label_1 
_geom_bond_atom_site_label_2 
_geom_bond_distance 
_geom_bond_site_symmetry_2 
_ccdc_geom_bond_type 
Zr1           O3   2.426       .  S
Zr1           O4   2.464       .  S
Zr1           O7   2.439       .  S
Zr1          O10   2.388       .  S
Zr1        O2745   2.377       .  S
Zr1        O1379   2.406   1_545  S
Zr1        O1380   2.406   1_545  S
Zr1        O1370   2.438   1_545  S
O2        Zr1369   2.438       .  S
O2           H58   0.990       .  S
O2           H66   0.990       .  S
O3           C23   1.283       .  A
O4         C2761   1.291       .  A
O5          Zr15   2.444       .  S
O5         C1392   1.287       .  A
O6          Zr14   2.428       .  S
O6           C25   1.282       .  A
O7           C24   1.288       .  A
O8          Zr16   2.404       .  S
O8         C2759   1.279       .  A
O9          Zr14   2.389       .  S
O9          Zr16   2.374       .  S
O9        Zr2737   2.377   1_455  S
O10       Zr1383   2.394       .  S
O10       Zr2752   2.377       .  S
O10          H45   0.966       .  S
O11         Zr31   2.407       .  S
O11       Zr1369   2.406       .  S
O11       Zr4118   2.397       .  S
O11          H48   0.966       .  S
O12         Zr15   2.393       .  S
O12         Zr31   2.394       .  S
O12       Zr1369   2.406       .  S
Zr13         O32   2.405       .  S
Zr13         O40   2.417       .  S
Zr13         O28   2.429       .  S
Zr13         O21   2.376       .  S
Zr13       O1387   2.393       .  S
Zr13       O1388   2.393       .  S
Zr13       O2758   2.385   1_455  S
Zr13       O1406   2.441       .  S
Zr14         O27   2.439       .  S
Zr14         O20   2.394       .  S
Zr14       O4115   2.397   1_445  S
Zr14       O1389   2.384   1_545  S
Zr14         O26   2.433       .  S
Zr14       O1401   2.436   1_545  S
Zr15         O41   2.448       .  S
Zr15         O22   2.390       .  S
Zr15       O1378   2.394       .  S
Zr15       O4123   2.395       .  S
Zr15         O17   2.435       .  S
Zr15       O1407   2.439       .  S
Zr16         O19   2.382       .  S
Zr16         O20   2.389       .  S
Zr16       O2746   2.377   1_455  S
Zr16         O42   2.435       .  S
Zr16         O43   2.435       .  S
Zr16         O18   2.436       .  S
O17          H54   0.990       .  S
O18          H49   0.990       .  S
O18          H63   0.990       .  S
O19       Zr1381   2.393   1_545  S
O19       Zr4119   2.395   1_455  S
O20       Zr1381   2.393   1_545  S
O20          H46   0.966       .  S
O21       Zr1382   2.384       .  S
O21       Zr2767   2.376   1_455  S
O22         Zr31   2.383       .  S
O22       Zr2749   2.385       .  S
O22          H47   0.966       .  S
C23        O2744   1.279       .  A
C23        C4042   1.468       .  S
C24        O1373   1.287   1_545  A
C24        C1322   1.490       .  S
C25        O2740   1.291   1_455  A
C25        C1277   1.513       .  S
O26          H62   0.990       .  S
O27        C1397   1.285       .  A
O28          C29   1.283       .  A
C29        O1395   1.285       .  A
C29        C1341   1.477       .  S
O30         Zr31   2.440       .  S
O30          H59   0.990       .  S
Zr31         O36   2.429       .  S
Zr31       O2757   2.376       .  S
Zr31         O34   2.436       .  S
Zr31         O35   2.442       .  S
O32          C37   1.278       .  A
O33       Zr1382   2.436       .  S
O33          H50   0.990       .  S
O33          H65   0.990       .  S
O34          H51   0.990       .  S
O35          H55   0.990       .  S
O35          H64   0.989       .  S
O36        C2773   1.283       .  A
C37        O2772   1.283   1_455  A
C37        C1290   1.469       .  S
O38       Zr1381   2.441   1_545  S
O38          H57   0.990       .  S
O38          H61   0.990       .  S
O39       Zr1383   2.439       .  S
O39          H53   0.990       .  S
O39          H60   0.990       .  S
O40        C2780   1.279       .  A
O41          C44   1.287       .  A
O42          H52   0.990       .  S
O43          H56   0.990       .  S
C44        O2776   1.279       .  A
C44        C4093   1.470       .  S
Zr67         O69   2.402       .  S
Zr67         O70   2.447       .  S
Zr67         O73   2.438       .  S
Zr67         O76   2.383       .  S
Zr67         O77   2.398       .  S
Zr67         O78   2.393       .  S
Zr67       O2811   2.379       .  S
Zr67         O68   2.436       .  S
O68         H124   0.990       .  S
O68         H132   0.990       .  S
O69        C2825   1.278       .  A
O70        C2827   1.287       .  A
O71         Zr81   2.425       .  S
O71          C90   1.283       .  A
O72         Zr80   2.410       .  S
O72          C91   1.282       .  A
O73          C90   1.288       .  A
O74         Zr82   2.436       .  S
O74          C89   1.284       .  A
O75         Zr80   2.390       .  S
O75         Zr82   2.368       .  S
O75       Zr2803   2.379   1_455  S
O76         Zr81   2.384       .  S
O76       Zr2818   2.370       .  S
O76         H111   0.966       .  S
O77         Zr97   2.393       .  S
O77       Zr2816   2.398       .  S
O77         H114   0.966       .  S
O78         Zr81   2.391       .  S
O78         Zr97   2.383       .  S
Zr79         O98   2.425       .  S
Zr79        O106   2.413       .  S
Zr79         O94   2.425       .  S
Zr79         O85   2.398       .  S
Zr79         O86   2.400       .  S
Zr79         O87   2.373       .  S
Zr79       O2824   2.381   1_455  S
Zr79        O104   2.439       .  S
Zr80         O93   2.437       .  S
Zr80         O86   2.389       .  S
Zr80         O87   2.378       .  S
Zr80       O2813   2.398   1_455  S
Zr80         O99   2.436       .  S
Zr80         O92   2.434       .  S
Zr81        O107   2.426       .  S
Zr81         O88   2.384       .  S
Zr81       O2821   2.387       .  S
Zr81         O83   2.435       .  S
Zr81        O105   2.437       .  S
Zr82         O85   2.392       .  S
Zr82         O86   2.401       .  S
Zr82       O2812   2.370       .  S
Zr82        O108   2.435       .  S
Zr82        O109   2.435       .  S
Zr82         O84   2.436       .  S
O83         H120   0.990       .  S
O84         H115   0.990       .  S
O84         H129   0.990       .  S
O85       Zr2817   2.387   1_455  S
O86         H112   0.966       .  S
O87       Zr2833   2.381   1_455  S
O88         Zr97   2.384       .  S
O88       Zr2815   2.381       .  S
O88         H113   0.966       .  S
C89        O2805   1.278   1_455  A
C89        C1293   1.468       .  S
C90        C1226   1.493       .  S
C91        O2806   1.287   1_455  A
C91        C1210   1.490       .  S
O92         H128   0.990       .  S
O93          C95   1.285       .  A
O94          C95   1.283       .  A
C95        C1242   1.481       .  S
O96         Zr97   2.439       .  S
O96         H125   0.990       .  S
Zr97        O102   2.400       .  S
Zr97       O2823   2.381       .  S
Zr97        O100   2.436       .  S
Zr97        O101   2.440       .  S
O98         C103   1.282       .  A
O99         H116   0.990       .  S
O99         H131   0.990       .  S
O100        H117   0.990       .  S
O101        H121   0.990       .  S
O101        H130   0.990       .  S
O102       C2839   1.278       .  A
C103       O2838   1.278   1_455  A
C103       C1309   1.465       .  S
O104        H123   0.991       .  S
O104        H127   0.990       .  S
O105        H119   0.990       .  S
O105        H126   0.990       .  S
O106        C110   1.278       .  A
O107       C2846   1.283       .  A
O108        H118   0.990       .  S
O109        H122   0.990       .  S
C110       O2843   1.283       .  A
C110       C1261   1.462       .  S
Zr133       O135   2.426       .  S
Zr133       O136   2.460       .  S
Zr133       O139   2.430       .  S
Zr133       O141   2.375       .  S
Zr133       O142   2.390       .  S
Zr133      O1511   2.403   1_545  S
Zr133      O1512   2.405   1_545  S
Zr133      O1502   2.437   1_545  S
O134      Zr1501   2.437       .  S
O134        H190   0.990       .  S
O134        H198   0.990       .  S
O135        C155   1.283       .  A
O136        C157   1.289       .  A
O137       Zr147   2.448       .  S
O137       C1524   1.287       .  A
O138       Zr146   2.433       .  S
O138        C157   1.284       .  A
O139        C156   1.285       .  A
O140       Zr148   2.406       .  S
O140        C155   1.280       .  A
O141       Zr146   2.385       .  S
O141       Zr148   2.371       .  S
O142       Zr148   2.377       .  S
O142      Zr1515   2.390       .  S
O142        H177   0.966       .  S
O143       Zr163   2.408       .  S
O143      Zr1501   2.403       .  S
O143      Zr1514   2.397       .  S
O143        H180   0.966       .  S
O144       Zr147   2.393       .  S
O144       Zr163   2.393       .  S
O144      Zr1501   2.405       .  S
Zr145       O164   2.412       .  S
Zr145       O172   2.428       .  S
Zr145       O160   2.434       .  S
Zr145       O153   2.378       .  S
Zr145       O154   2.387       .  S
Zr145      O1519   2.394       .  S
Zr145      O1520   2.398       .  S
Zr145      O1538   2.449       .  S
Zr146       O159   2.439       .  S
Zr146       O152   2.395       .  S
Zr146      O1511   2.397   1_545  S
Zr146      O1521   2.383   1_545  S
Zr146       O158   2.432       .  S
Zr146      O1533   2.436   1_545  S
Zr147       O173   2.450       .  S
Zr147       O154   2.389       .  S
Zr147      O1510   2.390       .  S
Zr147      O1519   2.393       .  S
Zr147       O149   2.435       .  S
Zr147      O1539   2.438       .  S
Zr148       O151   2.382       .  S
Zr148       O152   2.392       .  S
Zr148       O174   2.435       .  S
Zr148       O175   2.434       .  S
Zr148       O150   2.436       .  S
O149        H186   0.990       .  S
O150        H181   0.990       .  S
O150        H195   0.990       .  S
O151      Zr1513   2.394   1_545  S
O151      Zr1515   2.393       .  S
O152      Zr1513   2.398   1_545  S
O152        H178   0.966       .  S
O153       Zr163   2.374       .  S
O153      Zr1514   2.383       .  S
O154       Zr163   2.385       .  S
O154        H179   0.966       .  S
C155       C1178   1.470       .  S
C156       O1505   1.287       .  A
C156       C1338   1.478       .  S
C157       C1149   1.490       .  S
O158        H194   0.990       .  S
O159       C1529   1.286       .  A
O160        C161   1.284       .  A
C161       O1527   1.286       .  A
C161       C1325   1.488       .  S
O162       Zr163   2.441       .  S
O162        H191   0.990       .  S
Zr163       O168   2.430       .  S
Zr163       O166   2.436       .  S
Zr163       O167   2.442       .  S
O164        C169   1.280       .  A
O165      Zr1514   2.436       .  S
O165        H182   0.990       .  S
O165        H197   0.990       .  S
O166        H183   0.990       .  S
O167        H187   0.990       .  S
O167        H196   0.989       .  S
O168        C169   1.283       .  A
C169       C1165   1.468       .  S
O170      Zr1513   2.449   1_545  S
O170        H189   0.989       .  S
O170        H193   0.990       .  S
O171      Zr1515   2.438       .  S
O171        H185   0.990       .  S
O171        H192   0.990       .  S
O172        C176   1.283       .  A
O173        C176   1.288       .  A
O174        H184   0.990       .  S
O175        H188   0.990       .  S
C176       C2562   1.477       .  S
Zr199       O201   2.410       .  S
Zr199       O202   2.454       .  S
Zr199       O205   2.430       .  S
Zr199       O207   2.374       .  S
Zr199       O208   2.389       .  S
Zr199       O209   2.395       .  S
Zr199       O210   2.401       .  S
Zr199       O200   2.437       .  S
O200        H256   0.990       .  S
O200        H264   0.990       .  S
O201        C221   1.280       .  A
O202        C223   1.290       .  A
O203       Zr213   2.437       .  S
O203        C222   1.287       .  A
O204       Zr212   2.395       .  S
O204        C223   1.276       .  A
O205        C222   1.285       .  A
O206       Zr214   2.434       .  S
O206        C221   1.284       .  A
O207       Zr212   2.387       .  S
O207       Zr214   2.371       .  S
O208       Zr213   2.389       .  S
O208       Zr214   2.371       .  S
O208        H243   0.966       .  S
O209       Zr212   2.395       .  S
O209       Zr229   2.397       .  S
O209        H246   0.966       .  S
O210       Zr213   2.394       .  S
O210       Zr229   2.384       .  S
Zr211       O230   2.425       .  S
Zr211       O238   2.406       .  S
Zr211       O226   2.433       .  S
Zr211       O217   2.401       .  S
Zr211       O218   2.394       .  S
Zr211       O219   2.370       .  S
Zr211       O220   2.385       .  S
Zr211       O236   2.449       .  S
Zr212       O225   2.415       .  S
Zr212       O218   2.385       .  S
Zr212       O219   2.374       .  S
Zr212       O231   2.436       .  S
Zr212       O224   2.433       .  S
Zr213       O239   2.448       .  S
Zr213       O217   2.389       .  S
Zr213       O220   2.383       .  S
Zr213       O215   2.435       .  S
Zr213       O237   2.438       .  S
Zr214       O217   2.390       .  S
Zr214       O218   2.404       .  S
Zr214       O240   2.435       .  S
Zr214       O241   2.435       .  S
Zr214       O216   2.436       .  S
O215        H252   0.990       .  S
O216        H247   0.990       .  S
O216        H261   0.990       .  S
O218        H244   0.966       .  S
O219       Zr229   2.378       .  S
O220       Zr229   2.383       .  S
O220        H245   0.966       .  S
C221       C1162   1.466       .  S
C222       C1245   1.479       .  S
C223       C1114   1.491       .  S
O224        H260   0.990       .  S
O225        C227   1.279       .  A
O226        C227   1.285       .  A
C227       C1229   1.489       .  S
O228       Zr229   2.439       .  S
O228        H257   0.990       .  S
Zr229       O234   2.407       .  S
Zr229       O232   2.436       .  S
Zr229       O233   2.440       .  S
O230        C235   1.283       .  A
O231        H248   0.990       .  S
O231        H263   0.990       .  S
O232        H249   0.990       .  S
O233        H253   0.990       .  S
O233        H262   0.990       .  S
O234        C235   1.280       .  A
C235       C1181   1.468       .  S
O236        H255   0.990       .  S
O236        H259   0.990       .  S
O237        H251   0.990       .  S
O237        H258   0.990       .  S
O238        C242   1.279       .  A
O239        C242   1.288       .  A
O240        H250   0.990       .  S
O241        H254   0.990       .  S
C242       C1130   1.469       .  S
Zr265       O267   2.449       .  S
Zr265       O268   2.435       .  S
Zr265       O271   2.432       .  S
Zr265       O273   2.383       .  S
Zr265       O274   2.380   1_554  S
Zr265       O275   2.411       .  S
Zr265       O276   2.405   1_554  S
Zr265       O266   2.441       .  S
O266        H322   0.990       .  S
O266        H330   0.991       .  S
O267        C287   1.285   1_554  A
O268        C289   1.283       .  A
O269       Zr279   2.450       .  S
O269        C288   1.290       .  A
O270       Zr278   2.447       .  S
O270        C289   1.286       .  A
O271        C288   1.282   1_554  A
O272       Zr280   2.408       .  S
O272        C287   1.279       .  A
O273       Zr278   2.408       .  S
O273       Zr280   2.384   1_554  S
O274       Zr279   2.387       .  S
O274       Zr280   2.381       .  S
O274        H309   0.965       .  S
O275       Zr278   2.410       .  S
O275      Zr3031   2.383   1_455  S
O275        H312   0.964       .  S
O276       Zr279   2.387       .  S
O276      Zr3031   2.391   1_456  S
Zr277       O304   2.445       .  S
Zr277      O4400   2.434   1_445  S
Zr277      O1660   2.432   1_545  S
Zr277       O283   2.398       .  S
Zr277       O284   2.401       .  S
Zr277       O285   2.375   1_545  S
Zr277       O286   2.383       .  S
Zr277       O302   2.442       .  S
Zr278      O1659   2.457   1_545  S
Zr278       O284   2.396   1_554  S
Zr278       O285   2.386   1_544  S
Zr278       O290   2.435       .  S
Zr278      O1665   2.434   1_545  S
Zr279       O305   2.435       .  S
Zr279       O283   2.399       .  S
Zr279       O286   2.389       .  S
Zr279       O281   2.435       .  S
Zr279       O303   2.437       .  S
Zr280       O283   2.396       .  S
Zr280       O284   2.388       .  S
Zr280       O306   2.435       .  S
Zr280       O307   2.436       .  S
Zr280       O282   2.438       .  S
O281        H318   0.990       .  S
O282        H313   0.990       .  S
O282        H327   0.990       .  S
O284        H310   0.966       .  S
O285      Zr3031   2.376   1_466  S
O286      Zr3031   2.372   1_456  S
O286        H311   0.965   1_455  S
C287       C1053   1.478       .  S
C288       C1082   1.507       .  S
C289       C1354   1.495       .  S
O290        H326   0.990       .  S
O291      Zr1646   2.457       .  S
O291        C293   1.291   1_554  A
O292      Zr1645   2.432       .  S
O292        C293   1.283       .  A
C293       C1066   1.500       .  S
O294       Zr295   2.439       .  S
O294        H323   0.990       .  S
Zr295      O1668   2.414   1_544  S
Zr295      O3011   2.383       .  S
Zr295      O3012   2.391   1_554  S
Zr295      O3021   2.376   1_544  S
Zr295      O3022   2.372   1_554  S
Zr295       O299   2.442   1_554  S
Zr295      O1666   2.437   1_545  S
O296      Zr4381   2.434       .  S
O296        C301   1.285       .  A
O297      Zr1646   2.434       .  S
O297        H314   0.990       .  S
O297        H329   0.989   1_455  S
O298      Zr1663   2.437       .  S
O298        H315   0.990       .  S
O299        H319   0.990   1_556  S
O299        H328   0.989       .  S
O300      Zr1663   2.414   1_556  S
O300        C301   1.280       .  A
C301       C1037   1.466       .  S
O302        H321   0.988       .  S
O302        H325   0.989       .  S
O303        H317   0.990       .  S
O303        H324   0.990       .  S
O304        C308   1.289       .  A
O305        C308   1.286       .  A
O306        H316   0.990       .  S
O307        H320   0.989       .  S
C308       C1098   1.491       .  S
Zr331       O333   2.449       .  S
Zr331       O334   2.426       .  S
Zr331       O337   2.428   1_554  S
Zr331       O339   2.382       .  S
Zr331       O340   2.376   1_554  S
Zr331       O341   2.411       .  S
Zr331       O342   2.404   1_554  S
Zr331       O332   2.442       .  S
O332        H388   0.990       .  S
O332        H396   0.990       .  S
O333        C353   1.286   1_554  A
O334        C355   1.284       .  A
O335       Zr345   2.448       .  S
O335        C354   1.289       .  A
O336       Zr344   2.432       .  S
O336        C355   1.283       .  A
O337        C354   1.283       .  A
O338       Zr346   2.415       .  S
O338        C353   1.279       .  A
O339       Zr344   2.405       .  S
O339       Zr346   2.381   1_554  S
O340       Zr345   2.387       .  S
O340       Zr346   2.380       .  S
O340        H375   0.965       .  S
O341       Zr344   2.408       .  S
O341      Zr3097   2.389   1_455  S
O341        H378   0.965       .  S
O342       Zr345   2.385       .  S
O342      Zr3097   2.395   1_456  S
Zr343       O370   2.423       .  S
Zr343       O358   2.418       .  S
Zr343      O3098   2.437   1_455  S
Zr343       O349   2.396       .  S
Zr343       O350   2.397       .  S
Zr343       O351   2.367       .  S
Zr343       O352   2.381       .  S
Zr343       O368   2.438       .  S
Zr344       O357   2.456       .  S
Zr344       O350   2.386   1_554  S
Zr344       O351   2.377   1_554  S
Zr344       O363   2.433       .  S
Zr344       O356   2.435       .  S
Zr345       O371   2.432       .  S
Zr345       O349   2.393       .  S
Zr345       O352   2.389       .  S
Zr345       O347   2.434       .  S
Zr345       O369   2.437       .  S
Zr346       O349   2.394       .  S
Zr346       O350   2.395       .  S
Zr346       O372   2.435       .  S
Zr346       O373   2.439       .  S
Zr346       O348   2.439       .  S
O347        H384   0.990       .  S
O348        H379   0.990       .  S
O348        H393   0.990       .  S
O350        H376   0.965       .  S
O351      Zr3097   2.371   1_456  S
O352      Zr3097   2.372   1_456  S
O352        H377   0.965   1_455  S
C353       C1002   1.473       .  S
C354       C1069   1.496       .  S
C355       C1258   1.492       .  S
O356        H392   0.990       .  S
O357        C359   1.291   1_554  A
O358        C359   1.280       .  A
C359       C1085   1.504       .  S
O360       Zr361   2.440       .  S
O360        H389   0.990       .  S
Zr361       O366   2.428   1_554  S
Zr361      O3077   2.389       .  S
Zr361      O3078   2.395   1_554  S
Zr361      O3087   2.371   1_554  S
Zr361      O3088   2.372   1_554  S
Zr361       O364   2.437       .  S
Zr361       O365   2.442   1_554  S
O362      Zr3079   2.437       .  S
O362        C367   1.286       .  A
O363        H380   0.990       .  S
O363        H395   0.989   1_455  S
O364        H381   0.990       .  S
O365        H385   0.990   1_556  S
O365        H394   0.989       .  S
O366        C367   1.283       .  A
C367        C986   1.478       .  S
O368        H387   0.989       .  S
O368        H391   0.989       .  S
O369        H383   0.990       .  S
O369        H390   0.990       .  S
O370        C374   1.285       .  A
O371        C374   1.286       .  A
O372        H382   0.990       .  S
O373        H386   0.990       .  S
C374       C1018   1.485       .  S
Zr397       O399   2.447       .  S
Zr397       O400   2.439       .  S
Zr397       O403   2.430   1_554  S
Zr397       O405   2.386       .  S
Zr397       O406   2.377   1_554  S
Zr397       O407   2.412       .  S
Zr397       O408   2.407   1_554  S
Zr397       O398   2.443       .  S
O398        H454   0.991       .  S
O398        H462   0.990       .  S
O399        C419   1.286   1_554  A
O400        C421   1.285       .  A
O401       Zr411   2.445       .  S
O401        C420   1.287       .  A
O402       Zr410   2.455       .  S
O402        C421   1.288       .  A
O403        C420   1.283       .  A
O404       Zr412   2.418       .  S
O404        C419   1.280       .  A
O405       Zr410   2.406       .  S
O405       Zr412   2.385   1_554  S
O406       Zr411   2.383       .  S
O406       Zr412   2.377       .  S
O406        H441   0.966       .  S
O407       Zr410   2.409       .  S
O407       Zr427   2.383       .  S
O407        H444   0.964       .  S
O408       Zr411   2.384       .  S
O408       Zr427   2.398   1_556  S
Zr409       O436   2.453       .  S
Zr409      O1796   2.440   1_545  S
Zr409      O1792   2.440   1_545  S
Zr409       O415   2.403       .  S
Zr409       O416   2.408       .  S
Zr409       O417   2.378   1_545  S
Zr409       O418   2.383       .  S
Zr409       O434   2.445       .  S
Zr410      O1791   2.461   1_545  S
Zr410       O416   2.399   1_554  S
Zr410       O417   2.388   1_544  S
Zr410       O422   2.435       .  S
Zr410      O1797   2.434   1_545  S
Zr411       O437   2.420       .  S
Zr411       O415   2.399       .  S
Zr411       O418   2.390       .  S
Zr411       O413   2.434       .  S
Zr411       O435   2.437       .  S
Zr412       O415   2.401       .  S
Zr412       O416   2.387       .  S
Zr412       O438   2.435       .  S
Zr412       O439   2.436       .  S
Zr412       O414   2.438       .  S
O413        H450   0.990       .  S
O414        H445   0.990       .  S
O414        H459   0.990       .  S
O416        H442   0.966       .  S
O417       Zr427   2.374   1_566  S
O418       Zr427   2.373   1_556  S
O418        H443   0.965       .  S
C419        C989   1.478       .  S
C420        C957   1.485       .  S
C421       C1197   1.492       .  S
O422        H458   0.990       .  S
O423      Zr1778   2.461       .  S
O423        C425   1.292   1_554  A
O424      Zr1777   2.440       .  S
O424        C425   1.285       .  A
C425        C941   1.499       .  S
O426       Zr427   2.440       .  S
O426        H455   0.990       .  S
Zr427      O1800   2.421   1_544  S
Zr427       O431   2.443   1_554  S
Zr427      O1798   2.438   1_545  S
O428      Zr1777   2.440       .  S
O428        C433   1.286       .  A
O429      Zr1778   2.434       .  S
O429        H446   0.990       .  S
O429        H461   0.990       .  S
O430      Zr1795   2.438       .  S
O430        H447   0.990       .  S
O431        H451   0.990       .  S
O431        H460   0.990       .  S
O432      Zr1795   2.421   1_556  S
O432        C433   1.281       .  A
C433       C1005   1.473       .  S
O434        H453   0.988       .  S
O434        H457   0.990       .  S
O435        H449   0.990       .  S
O435        H456   0.990       .  S
O436        C440   1.288       .  A
O437        C440   1.282       .  A
O438        H448   0.990       .  S
O439        H452   0.990       .  S
C440        C973   1.474       .  S
Zr463       O465   2.440       .  S
Zr463       O466   2.430       .  S
Zr463       O469   2.431   1_554  S
Zr463       O471   2.385       .  S
Zr463       O472   2.376   1_554  S
Zr463       O473   2.408       .  S
Zr463       O474   2.402   1_554  S
Zr463       O464   2.443       .  S
O464        H520   0.991       .  S
O464        H528   0.990       .  S
O465        C485   1.284   1_554  A
O466        C487   1.282       .  A
O467       Zr477   2.459       .  S
O467        C486   1.290       .  A
O468       Zr476   2.433       .  S
O468        C487   1.284       .  A
O469        C486   1.283       .  A
O470       Zr478   2.408       .  S
O470        C485   1.278       .  A
O471       Zr476   2.404       .  S
O471       Zr478   2.382   1_554  S
O472       Zr477   2.384       .  S
O472       Zr478   2.380       .  S
O472        H507   0.966       .  S
O473       Zr476   2.409       .  S
O473       Zr493   2.383       .  S
O473        H510   0.965       .  S
O474       Zr477   2.383       .  S
O474       Zr493   2.395   1_556  S
Zr475       O494   2.444       .  S
Zr475       O502   2.439       .  S
Zr475       O490   2.450       .  S
Zr475       O481   2.404       .  S
Zr475       O482   2.400       .  S
Zr475       O483   2.376   1_556  S
Zr475       O484   2.387       .  S
Zr475       O500   2.447       .  S
Zr476       O489   2.453       .  S
Zr476       O482   2.394   1_554  S
Zr476       O483   2.391       .  S
Zr476       O495   2.435       .  S
Zr476       O488   2.436       .  S
Zr477       O503   2.420       .  S
Zr477       O481   2.400       .  S
Zr477       O484   2.394       .  S
Zr477       O479   2.434       .  S
Zr477       O501   2.437       .  S
Zr478       O481   2.394       .  S
Zr478       O482   2.383       .  S
Zr478       O504   2.435       .  S
Zr478       O505   2.436       .  S
Zr478       O480   2.438       .  S
O479        H516   0.990       .  S
O480        H511   0.990       .  S
O480        H525   0.990       .  S
O482        H508   0.965       .  S
O483       Zr493   2.382       .  S
O484       Zr493   2.370   1_556  S
O484        H509   0.966       .  S
C485       C1034   1.466       .  S
C486        C938   1.500       .  S
C487       C1133   1.471       .  S
O488        H524   0.990       .  S
O489        C491   1.288   1_554  A
O490        C491   1.288       .  A
C491        C954   1.494       .  S
O492       Zr493   2.439       .  S
O492        H521   0.990       .  S
Zr493       O498   2.417   1_554  S
Zr493       O496   2.437       .  S
Zr493       O497   2.441   1_554  S
O494        C499   1.287       .  A
O495        H512   0.990       .  S
O495        H527   0.990       .  S
O496        H513   0.990       .  S
O497        H517   0.990   1_556  S
O497        H526   0.989       .  S
O498        C499   1.281       .  A
C499       C1050   1.483       .  S
O500        H519   0.990       .  S
O500        H523   0.990       .  S
O501        H515   0.990       .  S
O501        H522   0.990       .  S
O502        C506   1.285       .  A
O503        C506   1.284       .  A
O504        H514   0.990       .  S
O505        H518   0.990       .  S
C506        C925   1.497       .  S
Zr529       O532   2.438   1_655  S
Zr529      O3267   2.437       .  S
Zr529      O3271   2.411       .  S
Zr529       O537   2.374   1_655  S
Zr529       O539   2.407   1_655  S
Zr529       O540   2.404   1_655  S
Zr529      O3274   2.385       .  S
Zr529      O3266   2.438       .  S
O530      Zr3265   2.438       .  S
O530        H586   0.990       .  S
O530       H3330   0.990       .  S
O531      Zr3265   2.437       .  S
O531        C551   1.284       .  A
O532        C553   1.284       .  A
O533      Zr3279   2.458       .  S
O533        C552   1.290       .  A
O534       Zr542   2.455       .  S
O534        C553   1.291       .  A
O535      Zr3265   2.411       .  S
O535        C552   1.282       .  A
O536      Zr3280   2.403       .  S
O536        C551   1.278       .  A
O537       Zr542   2.387       .  S
O537       Zr544   2.371       .  S
O538      Zr3265   2.385       .  S
O538      Zr3279   2.394       .  S
O538      Zr3280   2.381       .  S
O538        H573   0.966       .  S
O539       Zr542   2.397       .  S
O539       Zr559   2.414       .  S
O539        H576   0.966       .  S
O540       Zr543   2.390       .  S
O540       Zr559   2.397       .  S
Zr541       O560   2.413       .  S
Zr541       O568   2.412       .  S
Zr541       O556   2.416       .  S
Zr541       O547   2.386       .  S
Zr541       O548   2.398       .  S
Zr541       O549   2.375       .  S
Zr541       O550   2.380       .  S
Zr541       O566   2.442       .  S
Zr542       O555   2.454       .  S
Zr542       O548   2.402       .  S
Zr542       O549   2.391       .  S
Zr542       O561   2.435       .  S
Zr542       O554   2.432       .  S
Zr543       O569   2.453       .  S
Zr543      O3269   2.458   1_455  S
Zr543       O547   2.389       .  S
Zr543       O550   2.396       .  S
Zr543      O3274   2.394   1_455  S
Zr543       O545   2.436       .  S
Zr543      O3303   2.436   1_455  S
Zr544      O3272   2.403   1_455  S
Zr544       O547   2.376       .  S
Zr544       O548   2.390       .  S
Zr544      O3274   2.381   1_455  S
Zr544       O571   2.435       .  S
Zr544       O546   2.435       .  S
Zr544      O3306   2.435   1_455  S
O545       H3318   0.990   1_455  S
O546        H577   0.990   1_445  S
O546        H591   0.990       .  S
O548        H574   0.966       .  S
O549       Zr559   2.375       .  S
O550       Zr559   2.386       .  S
O550        H575   0.966       .  S
C551       C2229   1.465   1_545  S
C552        C890   1.485       .  S
C553       C1274   1.511       .  S
O554        H590   0.990       .  S
O555        C557   1.288       .  A
O556        C557   1.281       .  A
C557        C909   1.503       .  S
O558       Zr559   2.440       .  S
O558        H587   0.990       .  S
Zr559       O564   2.438       .  S
Zr559       O562   2.436       .  S
Zr559       O563   2.442       .  S
O560        C565   1.280       .  A
O561        H578   0.990       .  S
O561        H593   0.990       .  S
O562        H579   0.990       .  S
O563        H583   0.990       .  S
O563        H592   0.989       .  S
O564        C565   1.284       .  A
C565        C877   1.479       .  S
O566        H585   0.990       .  S
O566        H589   0.990       .  S
O567      Zr3279   2.436       .  S
O567        H581   0.990       .  S
O567        H588   0.990       .  S
O568        C572   1.283       .  A
O569        C572   1.287       .  A
O570      Zr3280   2.435       .  S
O570        H580   0.990   1_545  S
O571        H584   0.990       .  S
C572       C1101   1.487       .  S
H582       O3281   0.990       .  S
H594       O3266   0.990   1_455  S
Zr595       O598   2.413       .  S
Zr595      O3333   2.410   1_455  S
Zr595      O3337   2.408   1_455  S
Zr595       O603   2.377       .  S
Zr595       O605   2.395       .  S
Zr595       O606   2.393       .  S
Zr595      O3340   2.382   1_455  S
Zr595       O596   2.437       .  S
O596        H660   0.990       .  S
O596       H3388   0.990   1_455  S
O597      Zr3331   2.410       .  S
O597        C617   1.280       .  A
O598        C619   1.282       .  A
O599      Zr3345   2.439       .  S
O599        C618   1.287       .  A
O600       Zr608   2.439       .  S
O600        C619   1.285       .  A
O601      Zr3331   2.408       .  S
O601        C618   1.280       .  A
O602      Zr3346   2.432       .  S
O602        C617   1.284       .  A
O603       Zr608   2.391       .  S
O603       Zr610   2.368       .  S
O604      Zr3331   2.382       .  S
O604      Zr3345   2.386       .  S
O604      Zr3346   2.375       .  S
O604        H639   0.966       .  S
O605       Zr608   2.399       .  S
O605       Zr625   2.395       .  S
O605        H642   0.966       .  S
O606       Zr609   2.392       .  S
O606       Zr625   2.387       .  S
Zr607       O626   2.432       .  S
Zr607       O634   2.405       .  S
Zr607       O622   2.403       .  S
Zr607       O613   2.389       .  S
Zr607       O614   2.399       .  S
Zr607       O615   2.372       .  S
Zr607       O616   2.377       .  S
Zr607       O632   2.435       .  S
Zr608       O621   2.457       .  S
Zr608       O614   2.383       .  S
Zr608       O615   2.379       .  S
Zr608       O627   2.435       .  S
Zr608       O620   2.434       .  S
Zr609       O635   2.447       .  S
Zr609      O3335   2.439   1_455  S
Zr609       O613   2.384       .  S
Zr609       O616   2.381       .  S
Zr609      O3340   2.386   1_455  S
Zr609       O611   2.435       .  S
Zr609      O3369   2.437   1_455  S
Zr610      O3338   2.432   1_455  S
Zr610       O613   2.391       .  S
Zr610       O614   2.400       .  S
Zr610      O3340   2.375   1_455  S
Zr610       O637   2.438       .  S
Zr610       O612   2.437       .  S
Zr610      O3372   2.435   1_455  S
O611       H3384   0.990       .  S
O612        H643   0.990   1_455  S
O612        H657   0.990       .  S
O614        H640   0.965       .  S
O615       Zr625   2.375       .  S
O616       Zr625   2.384       .  S
O616        H641   0.966       .  S
C617        C794   1.473       .  S
C618        C826   1.480       .  S
C619       C1213   1.492       .  S
O620        H656   0.990       .  S
O621        C623   1.291       .  A
O622        C623   1.278       .  A
C623        C842   1.493       .  S
O624       Zr625   2.439       .  S
O624        H653   0.990       .  S
Zr625       O630   2.408       .  S
Zr625       O628   2.436       .  S
Zr625       O629   2.440       .  S
O626        C631   1.285       .  A
O627        H644   0.990       .  S
O627        H659   0.990       .  S
O628        H645   0.990       .  S
O629        H649   0.990       .  S
O629        H658   0.990       .  S
O630        C631   1.280       .  A
C631        C813   1.475       .  S
O632        H651   0.988       .  S
O632        H655   0.989       .  S
O633      Zr3345   2.437       .  S
O633        H647   0.990       .  S
O633        H654   0.990       .  S
O634        C638   1.282       .  A
O635        C638   1.286       .  A
O636      Zr3346   2.435       .  S
O636        H646   0.990       .  S
O637        H650   0.990       .  S
C638       C1021   1.473       .  S
H648       O3347   0.990       .  S
H652       O3332   0.990       .  S
Zr661       O663   2.428       .  S
Zr661       O664   2.433       .  S
Zr661       O667   2.411       .  S
Zr661       O669   2.374       .  S
Zr661       O670   2.384       .  S
Zr661       O671   2.404       .  S
Zr661       O672   2.403       .  S
Zr661       O662   2.439       .  S
O662        H718   0.990       .  S
O662        H726   0.990       .  S
O663        C683   1.283       .  A
O664        C685   1.284       .  A
O665       Zr675   2.458       .  S
O665        C684   1.289       .  A
O666       Zr674   2.458       .  S
O666        C685   1.289       .  A
O667        C684   1.283       .  A
O668       Zr676   2.403       .  S
O668        C683   1.279       .  A
O669       Zr674   2.391       .  S
O669       Zr676   2.374       .  S
O670       Zr675   2.392       .  S
O670       Zr676   2.379       .  S
O670        H705   0.966       .  S
O671       Zr674   2.399       .  S
O671       Zr691   2.411       .  S
O671        H708   0.966       .  S
O672       Zr675   2.393       .  S
O672       Zr691   2.396       .  S
Zr673       O692   2.407       .  S
Zr673       O700   2.410       .  S
Zr673       O688   2.405       .  S
Zr673       O679   2.385       .  S
Zr673       O680   2.395       .  S
Zr673       O681   2.375       .  S
Zr673       O682   2.379       .  S
Zr673       O698   2.447       .  S
Zr674       O687   2.458       .  S
Zr674       O680   2.400       .  S
Zr674       O681   2.387       .  S
Zr674       O693   2.436       .  S
Zr674       O686   2.433       .  S
Zr675       O701   2.461       .  S
Zr675       O679   2.389       .  S
Zr675       O682   2.391       .  S
Zr675       O677   2.436       .  S
Zr675       O699   2.437       .  S
Zr676       O679   2.379       .  S
Zr676       O680   2.390       .  S
Zr676       O702   2.435       .  S
Zr676       O703   2.436       .  S
Zr676       O678   2.436       .  S
O677        H714   0.990       .  S
O678        H709   0.990   1_545  S
O678        H723   0.990       .  S
O680        H706   0.966       .  S
O681       Zr691   2.372       .  S
O682       Zr691   2.383       .  S
O682        H707   0.966       .  S
C683       C2178   1.478   1_545  S
C684        C906   1.502       .  S
C685       C1146   1.493       .  S
O686        H722   0.990       .  S
O687        C689   1.289       .  A
O688        C689   1.280       .  A
C689        C893   1.483       .  S
O690       Zr691   2.440       .  S
O690        H719   0.990       .  S
Zr691       O696   2.437       .  S
Zr691       O694   2.436       .  S
Zr691       O695   2.442       .  S
O692        C697   1.279       .  A
O693        H710   0.990       .  S
O693        H725   0.990       .  S
O694        H711   0.990       .  S
O695        H715   0.990       .  S
O695        H724   0.989       .  S
O696        C697   1.285       .  A
C697        C797   1.475       .  S
O698        H717   0.990       .  S
O698        H721   0.990       .  S
O699        H713   0.990       .  S
O699        H720   0.990       .  S
O700        C704   1.282       .  A
O701        C704   1.289       .  A
O702        H712   0.990   1_545  S
O703        H716   0.990       .  S
C704        C970   1.504       .  S
Zr727       O729   2.414       .  S
Zr727       O730   2.400       .  S
Zr727       O733   2.398       .  S
Zr727       O735   2.375       .  S
Zr727       O736   2.378       .  S
Zr727       O737   2.393       .  S
Zr727       O738   2.388       .  S
Zr727       O728   2.437       .  S
O728        H784   0.989       .  S
O728        H792   0.990       .  S
O729        C749   1.281       .  A
O730        C751   1.277       .  A
O731       Zr741   2.447       .  S
O731        C750   1.289       .  A
O732       Zr740   2.451       .  S
O732        C751   1.290       .  A
O733        C750   1.277       .  A
O734       Zr742   2.437       .  S
O734        C749   1.285       .  A
O735       Zr740   2.385       .  S
O735       Zr742   2.366       .  S
O736       Zr741   2.381       .  S
O736       Zr742   2.374       .  S
O736        H771   0.966       .  S
O737       Zr740   2.391       .  S
O737       Zr757   2.395       .  S
O737        H774   0.966       .  S
O738       Zr741   2.385       .  S
O738       Zr757   2.386       .  S
Zr739       O758   2.442       .  S
Zr739       O766   2.421       .  S
Zr739       O754   2.422       .  S
Zr739       O745   2.398       .  S
Zr739       O746   2.408       .  S
Zr739       O747   2.377       .  S
Zr739       O748   2.382       .  S
Zr739       O764   2.440       .  S
Zr740       O753   2.442       .  S
Zr740       O746   2.395       .  S
Zr740       O747   2.391       .  S
Zr740       O759   2.436       .  S
Zr740       O752   2.434       .  S
Zr741       O767   2.430       .  S
Zr741       O745   2.394       .  S
Zr741       O748   2.391       .  S
Zr741       O743   2.435       .  S
Zr741       O765   2.438       .  S
Zr742       O745   2.392       .  S
Zr742       O746   2.399       .  S
Zr742       O768   2.434       .  S
Zr742       O769   2.436       .  S
Zr742       O744   2.437       .  S
O743        H780   0.990       .  S
O744        H775   0.990       .  S
O744        H789   0.990       .  S
O746        H772   0.966       .  S
O747       Zr757   2.379       .  S
O748       Zr757   2.387       .  S
O748        H773   0.966       .  S
C749        C874   1.477       .  S
C750        C845   1.490       .  S
C751       C1117   1.494       .  S
O752        H788   0.990       .  S
O753        C755   1.287       .  A
O754        C755   1.282       .  A
C755        C829   1.486       .  S
O756       Zr757   2.439       .  S
O756        H785   0.990       .  S
Zr757       O762   2.402       .  S
Zr757       O760   2.437       .  S
Zr757       O761   2.439       .  S
O758        C763   1.285       .  A
O759        H776   0.990       .  S
O759        H791   0.990       .  S
O760        H777   0.990       .  S
O761        H781   0.990       .  S
O761        H790   0.990       .  S
O762        C763   1.277       .  A
C763        C858   1.464       .  S
O764        H783   0.991       .  S
O764        H787   0.990       .  S
O765        H779   0.990       .  S
O765        H786   0.990       .  S
O766        C770   1.279       .  A
O767        C770   1.282       .  A
O768        H778   0.990       .  S
O769        H782   0.990       .  S
C770        C922   1.465       .  S
C793        C794   1.401       .  A
C793        C798   1.400       .  A
C793        H800   1.084       .  S
C794        C795   1.417       .  A
C795        C796   1.403       .  A
C795        C802   1.510       .  S
C796        C797   1.402       .  A
C796        H801   1.084       .  S
C797        C798   1.417       .  A
C798        C799   1.510       .  S
C799        H803   1.111       .  S
C799        H804   1.110       .  S
C799        H805   1.109       .  S
C802        H806   1.109       .  S
C802        H807   1.111       .  S
C802        H808   1.111       .  S
C809        C810   1.407       .  A
C809        C814   1.400       .  A
C809        H816   1.084       .  S
C810       C2051   1.478       .  S
C810        C811   1.415       .  A
C811        C812   1.401       .  A
C811       C2186   1.510       .  S
C812        C813   1.406       .  A
C812        H817   1.084       .  S
C813        C814   1.411       .  A
C814        C815   1.507       .  S
C815        H819   1.111       .  S
C815        H820   1.111       .  S
C815        H821   1.109       .  S
C818       C2179   1.510   1_545  S
C818        H822   1.110       .  S
C818        H823   1.111       .  S
C818       H2192   1.111       .  S
H824       C2186   1.111       .  S
C825        C826   1.400       .  A
C825        C830   1.400       .  A
C825        H832   1.085       .  S
C826        C827   1.417       .  A
C827        C828   1.404       .  A
C827        C834   1.507       .  S
C828        C829   1.403       .  A
C828        H833   1.084       .  S
C829        C830   1.419       .  A
C830        C831   1.504       .  S
C831        H835   1.111       .  S
C831        H836   1.110       .  S
C831        H837   1.106       .  S
C834        H838   1.108       .  S
C834        H839   1.110       .  S
C834        H840   1.111       .  S
C841        C842   1.403       .  A
C841        C846   1.402       .  A
C841        H848   1.084       .  S
C842        C843   1.425       .  A
C843        C844   1.401       .  A
C843        C850   1.508       .  S
C844        C845   1.401       .  A
C844        H849   1.084       .  S
C845        C846   1.422       .  A
C846        C847   1.508       .  S
C847        H851   1.111       .  S
C847        H852   1.108       .  S
C847        H853   1.110       .  S
C850        H854   1.105       .  S
C850        H855   1.107       .  S
C850        H856   1.111       .  S
C857        C858   1.400       .  A
C857        C862   1.401       .  A
C857        H864   1.084       .  S
C858        C859   1.411       .  A
C859        C860   1.402       .  A
C859        C866   1.507       .  S
C860        C861   1.401       .  A
C860        H865   1.084       .  S
C861       C1919   1.465       .  S
C861        C862   1.412       .  A
C862        C863   1.508       .  S
C863        H867   1.111       .  S
C863        H868   1.109       .  S
C863        H869   1.111       .  S
C866        H870   1.111       .  S
C866        H871   1.109       .  S
C866        H872   1.111       .  S
C873        C874   1.401       .  A
C873        C878   1.401       .  A
C873        H880   1.084       .  S
C874        C875   1.417       .  A
C875        C876   1.405       .  A
C875        C882   1.509       .  S
C876        C877   1.402       .  A
C876        H881   1.084       .  S
C877        C878   1.417       .  A
C878        C879   1.508       .  S
C879        H883   1.111       .  S
C879        H884   1.111       .  S
C879        H885   1.108       .  S
C882        H886   1.108       .  S
C882        H887   1.111       .  S
C882        H888   1.111       .  S
C889        C890   1.409       .  A
C889        C894   1.407       .  A
C889        H896   1.084       .  S
C890        C891   1.412       .  A
C891        C892   1.402       .  A
C891        C898   1.506       .  S
C892        C893   1.406       .  A
C892        H897   1.083       .  S
C893        C894   1.412       .  A
C894        C895   1.507       .  S
C895        H899   1.111       .  S
C895        H900   1.111       .  S
C895        H901   1.109       .  S
C898        H902   1.109       .  S
C898        H903   1.110       .  S
C898        H904   1.111       .  S
C905        C906   1.412       .  A
C905        C910   1.406       .  A
C905        H912   1.083       .  S
C906        C907   1.418       .  A
C907        C908   1.405       .  A
C907        C914   1.509       .  S
C908        C909   1.412       .  A
C908        H913   1.081       .  S
C909        C910   1.418       .  A
C910        C911   1.508       .  S
C911        H915   1.111       .  S
C911        H916   1.110       .  S
C911        H917   1.109       .  S
C914        H918   1.110       .  S
C914        H919   1.109       .  S
C914        H920   1.111       .  S
C921        C922   1.398       .  A
C921        C926   1.403       .  A
C921        H928   1.085       .  S
C922        C923   1.402       .  A
C923        C924   1.402       .  A
C923        C930   1.506       .  S
C924        C925   1.415       .  A
C924        H929   1.083       .  S
C925        C926   1.425       .  A
C926        C927   1.509       .  S
C927        H931   1.111       .  S
C927        H932   1.110       .  S
C927        H933   1.108       .  S
C930        H934   1.110       .  S
C930        H935   1.111       .  S
C930        H936   1.111       .  S
C937        C938   1.406       .  A
C937        C942   1.412       .  A
C937        H944   1.084       .  S
C938        C939   1.421       .  A
C939        C940   1.409       .  A
C939        C946   1.509   1_556  S
C940        C941   1.405       .  A
C940        H945   1.084   1_556  S
C941        C942   1.421       .  A
C942        C943   1.509       .  S
C943        H947   1.111       .  S
C943        H948   1.109       .  S
C943        H949   1.111       .  S
C946        H950   1.109   1_554  S
C946        H951   1.108       .  S
C946        H952   1.111       .  S
C953        C954   1.401       .  A
C953        C958   1.402       .  A
C953        H960   1.071       .  S
C954        C955   1.418       .  A
C955        C956   1.412       .  A
C955        C962   1.507       .  S
C956        C957   1.407       .  A
C956        H961   1.084       .  S
C957        C958   1.411       .  A
C958        C959   1.508       .  S
C959        H963   1.110       .  S
C959        H964   1.111       .  S
C959        H965   1.108       .  S
C962        H966   1.109   1_556  S
C962        H967   1.111       .  S
C962        H968   1.111       .  S
C969        C970   1.414       .  A
C969        C974   1.399       .  A
C969        H976   1.083       .  S
C970        C971   1.424       .  A
C971        C972   1.412       .  A
C971        C978   1.507       .  S
C972        C973   1.402       .  A
C972        H977   1.084       .  S
C973        C974   1.405       .  A
C974        C975   1.508       .  S
C975        H979   1.111       .  S
C975        H980   1.108       .  S
C975        H981   1.110       .  S
C978        H982   1.109       .  S
C978        H983   1.110       .  S
C978        H984   1.111       .  S
C985        C986   1.404       .  A
C985        C990   1.406       .  A
C985        H992   1.084       .  S
C986        C987   1.413       .  A
C987        C988   1.404       .  A
C987        C994   1.507       .  S
C988        C989   1.403       .  A
C988        H993   1.085       .  S
C989        C990   1.413       .  A
C990        C991   1.506       .  S
C991        H995   1.111   1_556  S
C991        H996   1.109       .  S
C991        H997   1.111   1_556  S
C994        H998   1.111       .  S
C994        H999   1.108       .  S
C994       H1000   1.111       .  S
C1001      C1002   1.404       .  A
C1001      C1006   1.404       .  A
C1001      H1008   1.084       .  S
C1002      C1003   1.410   1_556  A
C1003      C1004   1.405       .  A
C1003      C1010   1.506       .  S
C1004      C1005   1.405   1_554  A
C1004      H1009   1.084       .  S
C1005      C1006   1.410       .  A
C1006      C1007   1.507       .  S
C1007      H1011   1.111       .  S
C1007      H1012   1.110       .  S
C1007      H1013   1.111       .  S
C1010      H1014   1.111       .  S
C1010      H1015   1.110       .  S
C1010      H1016   1.111       .  S
C1017      C1018   1.411       .  A
C1017      C1022   1.409       .  A
C1017      H1024   1.084       .  S
C1018      C1019   1.417       .  A
C1019      C1020   1.392       .  A
C1019      C1026   1.507       .  S
C1020      C1021   1.398       .  A
C1020      H1025   1.079       .  S
C1021      C1022   1.408       .  A
C1022      C1023   1.505       .  S
C1023      H1027   1.111       .  S
C1023      H1028   1.110   1_455  S
C1023      H1029   1.110       .  S
C1026      H1030   1.109       .  S
C1026      H1031   1.107       .  S
C1026      H1032   1.111       .  S
C1033      C1034   1.402       .  A
C1033      C1038   1.401       .  A
C1033      H1040   1.084       .  S
C1034      C1035   1.409       .  A
C1035      C1036   1.403       .  A
C1035      C1042   1.506   1_556  S
C1036      C1037   1.402       .  A
C1036      H1041   1.083       .  S
C1037      C1038   1.409       .  A
C1038      C1039   1.506       .  S
C1039      H1043   1.111       .  S
C1039      H1044   1.111       .  S
C1039      H1045   1.109       .  S
C1042      H1046   1.110   1_554  S
C1042      H1047   1.111       .  S
C1042      H1048   1.111       .  S
C1049      C1050   1.404       .  A
C1049      C1054   1.407       .  A
C1049      H1056   1.084       .  S
C1050      C1051   1.413       .  A
C1051      C1052   1.401       .  A
C1051      C1058   1.498       .  S
C1052      C1053   1.399       .  A
C1052      H1057   1.085       .  S
C1053      C1054   1.415       .  A
C1054      C1055   1.505       .  S
C1055      H1059   1.111       .  S
C1055      H1060   1.106   1_556  S
C1055      H1061   1.111       .  S
C1058      H1062   1.111       .  S
C1058      H1063   1.109       .  S
C1058      H1064   1.111       .  S
C1065      C1066   1.406       .  A
C1065      C1070   1.408       .  A
C1065      H1072   1.084   1_556  S
C1066      C1067   1.423       .  A
C1067      C1068   1.408       .  A
C1067      C1074   1.508       .  S
C1068      C1069   1.404       .  A
C1068      H1073   1.084       .  S
C1069      C1070   1.420       .  A
C1070      C1071   1.509   1_556  S
C1071      H1075   1.111       .  S
C1071      H1076   1.111   1_554  S
C1071      H1077   1.107       .  S
C1074      H1078   1.109       .  S
C1074      H1080   1.111   1_455  S
C1074      H3815   1.107   1_455  S
H1079      C3810   1.107       .  S
C1081      C1082   1.406       .  A
C1081      C1086   1.407       .  A
C1081      H1088   1.083       .  S
C1082      C1083   1.425   1_556  A
C1083      C1084   1.405       .  A
C1083      C1090   1.504       .  S
C1084      C1085   1.404   1_554  A
C1084      H1089   1.083       .  S
C1085      C1086   1.426       .  A
C1086      C1087   1.510       .  S
C1087      H1091   1.111       .  S
C1087      H1092   1.108       .  S
C1087      H1093   1.110       .  S
C1090      H1094   1.109       .  S
C1090      H1095   1.105       .  S
C1090      H1096   1.111       .  S
C1097      C1098   1.411       .  A
C1097      C1102   1.412       .  A
C1097      H1104   1.084       .  S
C1098      C1099   1.415       .  A
C1099      C1100   1.397       .  A
C1099      C1106   1.505       .  S
C1100      C1101   1.403       .  A
C1100      H1105   1.083       .  S
C1101      C1102   1.414       .  A
C1102      C1103   1.505       .  S
C1103      H1107   1.111   1_455  S
C1103      H1108   1.110   1_455  S
C1103      H1109   1.110       .  S
C1106      H1110   1.108       .  S
C1106      H1111   1.109       .  S
C1106      H1112   1.111       .  S
C1113      C1114   1.402       .  A
C1113      C1118   1.404       .  A
C1113      H1120   1.084       .  S
C1114      C1115   1.424       .  A
C1115      C1116   1.401       .  A
C1115      C1122   1.510       .  S
C1116      C1117   1.403       .  A
C1116      H1121   1.084       .  S
C1117      C1118   1.426       .  A
C1118      C1119   1.510       .  S
C1119      H1123   1.111       .  S
C1119      H1124   1.108       .  S
C1119      H1125   1.110       .  S
C1122      H1126   1.110       .  S
C1122      H1127   1.110       .  S
C1122      H1128   1.111       .  S
C1129      C1130   1.404       .  A
C1129      C1134   1.401       .  A
C1129      H1136   1.084       .  S
C1130      C1131   1.408       .  A
C1131      C1132   1.404       .  A
C1131      C1138   1.506       .  S
C1132      C1133   1.406       .  A
C1132      H1137   1.084       .  S
C1133      C1134   1.411       .  A
C1134      C1135   1.508       .  S
C1135      H1139   1.111       .  S
C1135      H1140   1.109       .  S
C1135      H1141   1.110       .  S
C1138      H1142   1.110       .  S
C1138      H1143   1.110       .  S
C1138      H1144   1.111       .  S
C1145      C1146   1.408       .  A
C1145      C1150   1.410       .  A
C1145      H1152   1.084       .  S
C1146      C1147   1.415       .  A
C1147      C1148   1.410       .  A
C1147      C1154   1.507       .  S
C1148      C1149   1.406       .  A
C1148      H1153   1.084       .  S
C1149      C1150   1.414       .  A
C1150      C2519   1.506       .  S
C1151      C2518   1.506       .  S
C1151      H1155   1.111       .  S
C1151      H1156   1.111       .  S
C1151      H1157   1.109       .  S
C1154      H1158   1.109       .  S
C1154      H1159   1.111       .  S
C1154      H1160   1.111       .  S
C1161      C1162   1.401       .  A
C1161      C1166   1.400       .  A
C1161      H1168   1.085       .  S
C1162      C1163   1.411       .  A
C1163      C1164   1.402       .  A
C1163      C1170   1.507       .  S
C1164      C1165   1.402       .  A
C1164      H1169   1.084       .  S
C1165      C1166   1.413       .  A
C1166      C1167   1.508       .  S
C1167      H1171   1.111       .  S
C1167      H1172   1.109       .  S
C1167      H1173   1.111       .  S
C1170      H1174   1.111       .  S
C1170      H1175   1.109       .  S
C1170      H1176   1.111       .  S
C1177      C1178   1.404       .  A
C1177      C1182   1.398       .  A
C1177      H1184   1.085       .  S
C1178      C1179   1.413       .  A
C1179      C1180   1.401       .  A
C1179      C1186   1.509       .  S
C1180      C1181   1.404       .  A
C1180      H1185   1.085       .  S
C1181      C1182   1.412       .  A
C1182      C1183   1.509       .  S
C1183      H1187   1.111       .  S
C1183      H1188   1.111       .  S
C1183      H1189   1.110       .  S
C1186      H1190   1.109       .  S
C1186      H1191   1.111       .  S
C1186      H1192   1.111       .  S
C1193      C1198   1.410       .  A
C1193      C2562   1.400       .  A
C1193      H1200   1.084       .  S
C1194      C1544   1.477       .  S
C1194      C1195   1.414       .  A
C1194      C2561   1.400   1_545  A
C1195      C1196   1.402       .  A
C1195      C1202   1.509       .  S
C1196      C1197   1.405       .  A
C1196      H1201   1.085       .  S
C1197      C2566   1.422   1_545  A
C1198      C2565   1.422       .  A
C1198      C1199   1.506       .  S
C1199      H1203   1.111       .  S
C1199      H1204   1.109       .  S
C1199      H1205   1.110       .  S
C1202      H1206   1.110       .  S
C1202      H1207   1.108       .  S
C1202      H1208   1.111       .  S
C1209      C1210   1.409       .  A
C1209      C1214   1.402       .  A
C1209      H1216   1.084       .  S
C1210      C3947   1.415   1_455  A
C1211      C3946   1.415       .  A
C1211      C3948   1.404       .  A
C1211      C1218   1.507       .  S
C1212      C1213   1.410       .  A
C1212      C3947   1.404   1_455  A
C1212      H3953   1.084   1_455  S
C1213      C1214   1.417       .  A
C1214      C1215   1.509       .  S
C1215      H1219   1.111       .  S
C1215      H1220   1.110       .  S
C1215      H1221   1.110       .  S
H1217      C3948   1.084       .  S
C1218      H1222   1.110       .  S
C1218      H1223   1.108       .  S
C1218      H1224   1.111       .  S
C1225      C1226   1.406       .  A
C1225      C1230   1.404       .  A
C1225      H1232   1.084       .  S
C1226      C1227   1.422       .  A
C1227      C1228   1.403       .  A
C1227      C1234   1.508       .  S
C1228      C1229   1.404       .  A
C1228      H1233   1.084       .  S
C1229      C1230   1.419       .  A
C1230      C1231   1.509       .  S
C1231      H1235   1.111       .  S
C1231      H1236   1.110       .  S
C1231      H1237   1.109       .  S
C1234      H1238   1.109       .  S
C1234      H1239   1.109       .  S
C1234      H1240   1.111       .  S
C1241      C1242   1.403       .  A
C1241      C1246   1.405       .  A
C1241      H1248   1.084       .  S
C1242      C1243   1.416       .  A
C1243      C1244   1.403       .  A
C1243      C1250   1.505       .  S
C1244      C1245   1.401       .  A
C1244      H1249   1.085       .  S
C1245      C1246   1.415       .  A
C1246      C1247   1.506       .  S
C1247      H1251   1.111       .  S
C1247      H1252   1.108       .  S
C1247      H1253   1.111       .  S
C1250      H1254   1.111       .  S
C1250      H1255   1.105       .  S
C1250      H1256   1.111       .  S
C1257      C1258   1.410       .  A
C1257      C1262   1.397       .  A
C1257      H1264   1.083       .  S
C1258      C1259   1.424       .  A
C1259      C1260   1.405       .  A
C1259      C1266   1.505       .  S
C1260      C1261   1.396       .  A
C1260      H1265   1.084       .  S
C1261      C1262   1.406       .  A
C1262      C1263   1.509       .  S
C1263      H1267   1.111       .  S
C1263      H1268   1.110       .  S
C1263      H1269   1.110       .  S
C1266      H1270   1.110       .  S
C1266      H1271   1.108       .  S
C1266      H1272   1.111       .  S
C1273      C1274   1.406       .  A
C1273      C1278   1.408       .  A
C1273      H1280   1.083       .  S
C1274      C4011   1.425   1_455  A
C1275      C1276   1.414       .  A
C1275      C4010   1.425       .  A
C1275      C1282   1.507       .  S
C1276      C4013   1.409       .  A
C1276      H1281   1.083       .  S
C1277      C1278   1.427       .  A
C1277      C4012   1.409   1_455  A
C1278      C1279   1.510       .  S
C1279      H1283   1.111       .  S
C1279      H1284   1.109       .  S
C1279      H1285   1.110       .  S
C1282      H1286   1.109       .  S
C1282      H1287   1.110       .  S
C1282      H1288   1.111       .  S
C1289      C1290   1.402       .  A
C1289      C1294   1.400       .  A
C1289      H1296   1.084       .  S
C1290      C1291   1.415       .  A
C1291      C1292   1.401       .  A
C1291      C1298   1.509       .  S
C1292      C1293   1.401       .  A
C1292      H1297   1.084       .  S
C1293      C1294   1.413       .  A
C1294      C1295   1.509       .  S
C1295      H1299   1.111       .  S
C1295      H1300   1.111       .  S
C1295      H4037   1.108   1_455  S
C1298      H1302   1.109       .  S
C1298      H1304   1.111       .  S
C1298      H4039   1.111   1_455  S
H1301      C4031   1.108       .  S
H1303      C4034   1.111       .  S
C1305      C1306   1.404       .  A
C1305      C1310   1.400       .  A
C1305      H1312   1.084       .  S
C1306      C2759   1.468       .  S
C1306      C4043   1.411   1_455  A
C1307      C1308   1.398       .  A
C1307      C4042   1.411       .  A
C1307      C1314   1.505       .  S
C1308      C4045   1.402       .  A
C1308      H1313   1.085       .  S
C1309      C1310   1.412       .  A
C1309      C4044   1.402   1_455  A
C1310      C1311   1.509       .  S
C1311      H1315   1.111       .  S
C1311      H1316   1.111       .  S
C1311      H1317   1.110       .  S
C1314      H1318   1.109       .  S
C1314      H1319   1.111       .  S
C1314      H1320   1.111       .  S
C1321      C1322   1.402       .  A
C1321      C1326   1.403       .  A
C1321      H1328   1.080       .  S
C1322      C2691   1.417   1_545  A
C1323      C1324   1.410       .  A
C1323      C2690   1.417       .  A
C1323      C1330   1.507       .  S
C1324      C1325   1.407       .  A
C1324      H1329   1.084       .  S
C1325      C2694   1.416       .  A
C1326      C2693   1.416       .  A
C1326      C1327   1.507       .  S
C1327      H1331   1.110       .  S
C1327      H1332   1.108       .  S
C1327      H1333   1.111       .  S
C1330      H1334   1.111       .  S
C1330      H1335   1.109       .  S
C1330      H1336   1.111       .  S
C1337      C1338   1.401       .  A
C1337      C1342   1.405       .  A
C1337      H1344   1.084       .  S
C1338      C2707   1.414   1_545  A
C1339      C1340   1.407       .  A
C1339      C2706   1.414       .  A
C1339      C1346   1.506       .  S
C1340      C1341   1.402       .  A
C1340      H1345   1.084       .  S
C1341      C2710   1.414       .  A
C1342      C2709   1.414       .  A
C1342      C1343   1.507       .  S
C1343      H1347   1.111       .  S
C1343      H1348   1.111       .  S
C1343      H1349   1.108       .  S
C1346      H1350   1.109       .  S
C1346      H1351   1.111       .  S
C1346      H1352   1.111       .  S
C1353      C1354   1.408       .  A
C1353      C1358   1.399       .  A
C1353      H1360   1.084       .  S
C1354      C2723   1.422   1_545  A
C1355      C1356   1.410       .  A
C1355      C2722   1.422       .  A
C1355      C1362   1.505       .  S
C1356      C1357   1.401       .  A
C1356      H4097   1.084   1_455  S
C1357      C2780   1.470       .  S
C1357      C2726   1.411       .  A
C1358      C2725   1.411       .  A
C1358      C1359   1.510       .  S
C1359      H1363   1.111       .  S
C1359      H1364   1.110       .  S
C1359      H1365   1.108       .  S
H1361      C4092   1.084       .  S
C1362      H1366   1.110       .  S
C1362      H1367   1.109   1_455  S
C1362      H4104   1.111   1_455  S
H1368      C4098   1.111       .  S
Zr1369     O1371   2.426       .  S
Zr1369     O1372   2.464       .  S
Zr1369     O1375   2.439       .  S
Zr1369     O4113   2.377       .  S
Zr1369     O1378   2.388       .  S
O1370      H1426   0.990   1_565  S
O1370      H1434   0.990       .  S
O1371      C1391   1.283       .  A
O1372      C4129   1.291       .  A
O1373     Zr1383   2.444   1_565  S
O1374     Zr1382   2.428       .  S
O1374      C1393   1.282       .  A
O1375      C1392   1.288       .  A
O1376     Zr1384   2.404       .  S
O1376      C4127   1.279       .  A
O1377     Zr4105   2.377   1_455  S
O1377     Zr1382   2.389       .  S
O1377     Zr1384   2.374       .  S
O1378     Zr4120   2.377       .  S
O1378      H1413   0.966       .  S
O1379     Zr2750   2.397   1_565  S
O1379     Zr1399   2.407       .  S
O1379      H1416   0.966       .  S
O1380     Zr1383   2.393   1_565  S
O1380     Zr1399   2.394       .  S
Zr1381     O1400   2.405       .  S
Zr1381     O1408   2.417       .  S
Zr1381     O1396   2.429   1_565  S
Zr1381     O1389   2.376       .  S
Zr1381     O4126   2.385   1_455  S
Zr1382     O1395   2.439       .  S
Zr1382     O2747   2.397   1_455  S
Zr1382     O1388   2.394       .  S
Zr1382     O1394   2.433       .  S
Zr1383     O1409   2.448       .  S
Zr1383     O2755   2.395       .  S
Zr1383     O1390   2.390   1_545  S
Zr1383     O1385   2.435   1_545  S
Zr1384     O4114   2.377   1_455  S
Zr1384     O1387   2.382       .  S
Zr1384     O1388   2.389       .  S
Zr1384     O1410   2.435       .  S
Zr1384     O1411   2.435       .  S
Zr1384     O1386   2.436       .  S
O1385      H1422   0.990       .  S
O1386      H1417   0.990       .  S
O1386      H1431   0.990       .  S
O1387     Zr2751   2.395   1_455  S
O1388      H1414   0.966       .  S
O1389     Zr4135   2.376   1_455  S
O1390     Zr4117   2.385       .  S
O1390     Zr1399   2.383       .  S
O1390      H1415   0.966       .  S
C1391      O4112   1.279       .  A
C1391      C5410   1.468       .  S
C1392      C2690   1.490       .  S
C1393      O4108   1.291   1_455  A
C1393      C2645   1.513       .  S
O1394      H1430   0.990       .  S
O1396      C1397   1.283       .  A
C1397      C2709   1.477       .  S
O1398     Zr1399   2.440       .  S
O1398      H1427   0.990       .  S
Zr1399     O1404   2.429       .  S
Zr1399     O4125   2.376       .  S
Zr1399     O1402   2.436       .  S
Zr1399     O1403   2.442       .  S
O1400      C1405   1.278       .  A
O1401      H1418   0.990       .  S
O1401      H1433   0.990       .  S
O1402      H1419   0.990       .  S
O1403      H1423   0.990       .  S
O1403      H1432   0.989       .  S
O1404      C4141   1.283       .  A
C1405      O4140   1.283   1_455  A
C1405      C2658   1.469       .  S
O1406      H1425   0.990       .  S
O1406      H1429   0.990       .  S
O1407      H1421   0.990       .  S
O1407      H1428   0.990       .  S
O1408      C4148   1.279   1_565  A
O1409      C1412   1.287       .  A
O1410      H1420   0.990       .  S
O1411      H1424   0.990       .  S
C1412      O4144   1.279   1_545  A
C1412      C5461   1.470       .  S
Zr1435     O1437   2.402       .  S
Zr1435     O1438   2.447       .  S
Zr1435     O1441   2.438       .  S
Zr1435     O4179   2.379       .  S
Zr1435     O1444   2.383       .  S
Zr1435     O1445   2.398       .  S
Zr1435     O1446   2.393       .  S
Zr1435     O1436   2.436       .  S
O1436      H1492   0.990       .  S
O1436      H1500   0.990       .  S
O1437      C4193   1.278       .  A
O1438      C4195   1.287       .  A
O1439     Zr1449   2.425       .  S
O1439      C1458   1.283       .  A
O1440     Zr1448   2.410       .  S
O1440      C1459   1.282       .  A
O1441      C1458   1.288       .  A
O1442     Zr1450   2.436       .  S
O1442      C1457   1.284       .  A
O1443     Zr4171   2.379   1_455  S
O1443     Zr1448   2.390       .  S
O1443     Zr1450   2.368       .  S
O1444     Zr1449   2.384       .  S
O1444     Zr4186   2.370       .  S
O1444      H1479   0.966       .  S
O1445     Zr4184   2.398       .  S
O1445     Zr1465   2.393       .  S
O1445      H1482   0.966       .  S
O1446     Zr1449   2.391       .  S
O1446     Zr1465   2.383       .  S
Zr1447     O1466   2.425       .  S
Zr1447     O1474   2.413       .  S
Zr1447     O1462   2.425       .  S
Zr1447     O1453   2.398       .  S
Zr1447     O1454   2.400       .  S
Zr1447     O1455   2.373       .  S
Zr1447     O4192   2.381   1_455  S
Zr1447     O1472   2.439       .  S
Zr1448     O1461   2.437       .  S
Zr1448     O4181   2.398   1_455  S
Zr1448     O1454   2.389       .  S
Zr1448     O1455   2.378       .  S
Zr1448     O1467   2.436       .  S
Zr1448     O1460   2.434       .  S
Zr1449     O1475   2.426       .  S
Zr1449     O4189   2.387       .  S
Zr1449     O1456   2.384       .  S
Zr1449     O1451   2.435       .  S
Zr1449     O1473   2.437       .  S
Zr1450     O4180   2.370       .  S
Zr1450     O1453   2.392       .  S
Zr1450     O1454   2.401       .  S
Zr1450     O1476   2.435       .  S
Zr1450     O1477   2.435       .  S
Zr1450     O1452   2.436       .  S
O1451      H1488   0.990       .  S
O1452      H1483   0.990       .  S
O1452      H1497   0.990       .  S
O1453     Zr4185   2.387   1_455  S
O1454      H1480   0.966       .  S
O1455     Zr4201   2.381   1_455  S
O1456     Zr4183   2.381       .  S
O1456     Zr1465   2.384       .  S
O1456      H1481   0.966       .  S
C1457      O4173   1.278   1_455  A
C1457      C2661   1.468       .  S
C1458      C2594   1.493       .  S
C1459      O4174   1.287   1_455  A
C1459      C2578   1.490       .  S
O1460      H1496   0.990       .  S
O1461      C1463   1.285       .  A
O1462      C1463   1.283       .  A
C1463      C2610   1.481       .  S
O1464     Zr1465   2.439       .  S
O1464      H1493   0.990       .  S
Zr1465     O1470   2.400       .  S
Zr1465     O4191   2.381       .  S
Zr1465     O1468   2.436       .  S
Zr1465     O1469   2.440       .  S
O1466      C1471   1.282       .  A
O1467      H1484   0.990       .  S
O1467      H1499   0.990       .  S
O1468      H1485   0.990       .  S
O1469      H1489   0.990       .  S
O1469      H1498   0.990       .  S
O1470      C4207   1.278       .  A
C1471      O4206   1.278   1_455  A
C1471      C2677   1.465       .  S
O1472      H1491   0.991       .  S
O1472      H1495   0.990       .  S
O1473      H1487   0.990       .  S
O1473      H1494   0.990       .  S
O1474      C1478   1.278       .  A
O1475      C4214   1.283       .  A
O1476      H1486   0.990       .  S
O1477      H1490   0.990       .  S
C1478      O4211   1.283       .  A
C1478      C2629   1.462       .  S
Zr1501     O1503   2.426       .  S
Zr1501     O1504   2.460       .  S
Zr1501     O1507   2.430       .  S
Zr1501     O1509   2.375       .  S
Zr1501     O1510   2.390       .  S
O1502      H1558   0.990   1_565  S
O1502      H1566   0.990       .  S
O1503      C1523   1.283       .  A
O1504      C1525   1.289       .  A
O1505     Zr1515   2.448       .  S
O1506     Zr1514   2.433       .  S
O1506      C1525   1.284       .  A
O1507      C1524   1.285       .  A
O1508     Zr1516   2.406       .  S
O1508      C1523   1.280       .  A
O1509     Zr1514   2.385       .  S
O1509     Zr1516   2.371       .  S
O1510     Zr1516   2.377       .  S
O1510      H1545   0.966       .  S
O1511     Zr1531   2.408       .  S
O1511      H1548   0.966       .  S
O1512     Zr1515   2.393   1_565  S
O1512     Zr1531   2.393       .  S
Zr1513     O1532   2.412       .  S
Zr1513     O1540   2.428       .  S
Zr1513     O1528   2.434       .  S
Zr1513     O1521   2.378       .  S
Zr1513     O1522   2.387       .  S
Zr1514     O1527   2.439       .  S
Zr1514     O1520   2.395       .  S
Zr1514     O1526   2.432       .  S
Zr1515     O1541   2.450       .  S
Zr1515     O1522   2.389   1_545  S
Zr1515     O1517   2.435   1_545  S
Zr1516     O1519   2.382       .  S
Zr1516     O1520   2.392       .  S
Zr1516     O1542   2.435       .  S
Zr1516     O1543   2.434       .  S
Zr1516     O1518   2.436       .  S
O1517      H1554   0.990       .  S
O1518      H1549   0.990       .  S
O1518      H1563   0.990       .  S
O1520      H1546   0.966       .  S
O1521     Zr1531   2.374       .  S
O1522     Zr1531   2.385       .  S
O1522      H1547   0.966       .  S
C1523      C2546   1.470       .  S
C1524      C2706   1.478       .  S
C1525      C2517   1.490       .  S
O1526      H1562   0.990       .  S
O1528      C1529   1.284   1_565  A
C1529      C2693   1.488       .  S
O1530     Zr1531   2.441       .  S
O1530      H1559   0.990       .  S
Zr1531     O1536   2.430       .  S
Zr1531     O1534   2.436       .  S
Zr1531     O1535   2.442       .  S
O1532      C1537   1.280       .  A
O1533      H1550   0.990       .  S
O1533      H1565   0.990       .  S
O1534      H1551   0.990       .  S
O1535      H1555   0.990       .  S
O1535      H1564   0.989       .  S
O1536      C1537   1.283       .  A
C1537      C2533   1.468       .  S
O1538      H1557   0.989       .  S
O1538      H1561   0.990       .  S
O1539      H1553   0.990       .  S
O1539      H1560   0.990       .  S
O1540      C1544   1.283   1_565  A
O1541      C1544   1.288       .  A
O1542      H1552   0.990       .  S
O1543      H1556   0.990       .  S
Zr1567     O1569   2.410       .  S
Zr1567     O1570   2.454       .  S
Zr1567     O1573   2.430       .  S
Zr1567     O1575   2.374       .  S
Zr1567     O1576   2.389       .  S
Zr1567     O1577   2.395       .  S
Zr1567     O1578   2.401       .  S
Zr1567     O1568   2.437       .  S
O1568      H1624   0.990       .  S
O1568      H1632   0.990       .  S
O1569      C1589   1.280       .  A
O1570      C1591   1.290       .  A
O1571     Zr1581   2.437       .  S
O1571      C1590   1.287       .  A
O1572     Zr1580   2.395       .  S
O1572      C1591   1.276       .  A
O1573      C1590   1.285       .  A
O1574     Zr1582   2.434       .  S
O1574      C1589   1.284       .  A
O1575     Zr1580   2.387       .  S
O1575     Zr1582   2.371       .  S
O1576     Zr1581   2.389       .  S
O1576     Zr1582   2.371       .  S
O1576      H1611   0.966       .  S
O1577     Zr1580   2.395       .  S
O1577     Zr1597   2.397       .  S
O1577      H1614   0.966       .  S
O1578     Zr1581   2.394       .  S
O1578     Zr1597   2.384       .  S
Zr1579     O1598   2.425       .  S
Zr1579     O1606   2.406       .  S
Zr1579     O1594   2.433       .  S
Zr1579     O1585   2.401       .  S
Zr1579     O1586   2.394       .  S
Zr1579     O1587   2.370       .  S
Zr1579     O1588   2.385       .  S
Zr1579     O1604   2.449       .  S
Zr1580     O1593   2.415       .  S
Zr1580     O1586   2.385       .  S
Zr1580     O1587   2.374       .  S
Zr1580     O1599   2.436       .  S
Zr1580     O1592   2.433       .  S
Zr1581     O1607   2.448       .  S
Zr1581     O1585   2.389       .  S
Zr1581     O1588   2.383       .  S
Zr1581     O1583   2.435       .  S
Zr1581     O1605   2.438       .  S
Zr1582     O1585   2.390       .  S
Zr1582     O1586   2.404       .  S
Zr1582     O1608   2.435       .  S
Zr1582     O1609   2.435       .  S
Zr1582     O1584   2.436       .  S
O1583      H1620   0.990       .  S
O1584      H1615   0.990       .  S
O1584      H1629   0.990       .  S
O1586      H1612   0.966       .  S
O1587     Zr1597   2.378       .  S
O1588     Zr1597   2.383       .  S
O1588      H1613   0.966       .  S
C1589      C2530   1.466       .  S
C1590      C2613   1.479       .  S
C1591      C2482   1.491       .  S
O1592      H1628   0.990       .  S
O1593      C1595   1.279       .  A
O1594      C1595   1.285       .  A
C1595      C2597   1.489       .  S
O1596     Zr1597   2.439       .  S
O1596      H1625   0.990       .  S
Zr1597     O1602   2.407       .  S
Zr1597     O1600   2.436       .  S
Zr1597     O1601   2.440       .  S
O1598      C1603   1.283       .  A
O1599      H1616   0.990       .  S
O1599      H1631   0.990       .  S
O1600      H1617   0.990       .  S
O1601      H1621   0.990       .  S
O1601      H1630   0.990       .  S
O1602      C1603   1.280       .  A
C1603      C2549   1.468       .  S
O1604      H1623   0.990       .  S
O1604      H1627   0.990       .  S
O1605      H1619   0.990       .  S
O1605      H1626   0.990       .  S
O1606      C1610   1.279       .  A
O1607      C1610   1.288       .  A
O1608      H1618   0.990       .  S
O1609      H1622   0.990       .  S
C1610      C2498   1.469       .  S
Zr1633     O1635   2.449       .  S
Zr1633     O1636   2.435       .  S
Zr1633     O1639   2.432       .  S
Zr1633     O1641   2.383       .  S
Zr1633     O1642   2.380   1_554  S
Zr1633     O1643   2.411       .  S
Zr1633     O1644   2.405   1_554  S
Zr1633     O1634   2.441       .  S
O1634      H1690   0.990       .  S
O1634      H1698   0.991       .  S
O1635      C1655   1.285   1_554  A
O1636      C1657   1.283       .  A
O1637     Zr1647   2.450       .  S
O1637      C1656   1.290       .  A
O1638     Zr1646   2.447       .  S
O1638      C1657   1.286       .  A
O1639      C1656   1.282   1_554  A
O1640     Zr1648   2.408       .  S
O1640      C1655   1.279       .  A
O1641     Zr1646   2.408       .  S
O1641     Zr1648   2.384   1_554  S
O1642     Zr1647   2.387       .  S
O1642     Zr1648   2.381       .  S
O1642      H1677   0.965       .  S
O1643     Zr1646   2.410       .  S
O1643     Zr4399   2.383   1_455  S
O1643      H1680   0.964       .  S
O1644     Zr1647   2.387       .  S
O1644     Zr4399   2.391   1_456  S
Zr1645     O3032   2.434   1_455  S
Zr1645     O1672   2.445       .  S
Zr1645     O1651   2.398       .  S
Zr1645     O1652   2.401       .  S
Zr1645     O1653   2.375       .  S
Zr1645     O1654   2.383       .  S
Zr1645     O1670   2.442       .  S
Zr1646     O1652   2.396   1_554  S
Zr1646     O1653   2.386   1_554  S
Zr1646     O1658   2.435       .  S
Zr1647     O1673   2.435       .  S
Zr1647     O1651   2.399       .  S
Zr1647     O1654   2.389       .  S
Zr1647     O1649   2.435       .  S
Zr1647     O1671   2.437       .  S
Zr1648     O1651   2.396       .  S
Zr1648     O1652   2.388       .  S
Zr1648     O1674   2.435       .  S
Zr1648     O1675   2.436       .  S
Zr1648     O1650   2.438       .  S
O1649      H1686   0.990       .  S
O1650      H1681   0.990       .  S
O1650      H1695   0.990       .  S
O1652      H1678   0.966       .  S
O1653     Zr4399   2.376   1_456  S
O1654     Zr4399   2.372   1_456  S
O1654      H1679   0.965   1_455  S
C1655      C2421   1.478       .  S
C1656      C2450   1.507       .  S
C1657      C2722   1.495       .  S
O1658      H1694   0.990       .  S
O1659      C1661   1.291   1_554  A
O1660      C1661   1.283       .  A
C1661      C2434   1.500       .  S
O1662     Zr1663   2.439       .  S
O1662      H1691   0.990       .  S
Zr1663     O4379   2.383       .  S
Zr1663     O4380   2.391   1_554  S
Zr1663     O4389   2.376   1_554  S
Zr1663     O4390   2.372   1_554  S
Zr1663     O1667   2.442   1_554  S
O1664     Zr3013   2.434   1_565  S
O1664      C1669   1.285       .  A
O1665      H1682   0.990       .  S
O1665      H1697   0.989   1_455  S
O1666      H1683   0.990       .  S
O1667      H1687   0.990   1_556  S
O1667      H1696   0.989       .  S
O1668      C1669   1.280       .  A
C1669      C2405   1.466       .  S
O1670      H1689   0.988       .  S
O1670      H1693   0.989       .  S
O1671      H1685   0.990       .  S
O1671      H1692   0.990       .  S
O1672      C1676   1.289       .  A
O1673      C1676   1.286       .  A
O1674      H1684   0.990       .  S
O1675      H1688   0.989       .  S
C1676      C2466   1.491       .  S
Zr1699     O1701   2.449       .  S
Zr1699     O1702   2.426       .  S
Zr1699     O1705   2.428   1_554  S
Zr1699     O1707   2.382       .  S
Zr1699     O1708   2.376   1_554  S
Zr1699     O1709   2.411       .  S
Zr1699     O1710   2.404   1_554  S
Zr1699     O1700   2.442       .  S
O1700      H1756   0.990       .  S
O1700      H1764   0.990       .  S
O1701      C1721   1.286   1_554  A
O1702      C1723   1.284       .  A
O1703     Zr1713   2.448       .  S
O1703      C1722   1.289       .  A
O1704     Zr1712   2.432       .  S
O1704      C1723   1.283       .  A
O1705      C1722   1.283       .  A
O1706     Zr1714   2.415       .  S
O1706      C1721   1.279       .  A
O1707     Zr1712   2.405       .  S
O1707     Zr1714   2.381   1_554  S
O1708     Zr1713   2.387       .  S
O1708     Zr1714   2.380       .  S
O1708      H1743   0.965       .  S
O1709     Zr1712   2.408       .  S
O1709     Zr4465   2.389   1_455  S
O1709      H1746   0.965       .  S
O1710     Zr1713   2.385       .  S
O1710     Zr4465   2.395   1_456  S
Zr1711     O4466   2.437   1_455  S
Zr1711     O1738   2.423       .  S
Zr1711     O1726   2.418       .  S
Zr1711     O1717   2.396       .  S
Zr1711     O1718   2.397       .  S
Zr1711     O1719   2.367       .  S
Zr1711     O1720   2.381       .  S
Zr1711     O1736   2.438       .  S
Zr1712     O1725   2.456       .  S
Zr1712     O1718   2.386   1_554  S
Zr1712     O1719   2.377   1_554  S
Zr1712     O1731   2.433       .  S
Zr1712     O1724   2.435       .  S
Zr1713     O1739   2.432       .  S
Zr1713     O1717   2.393       .  S
Zr1713     O1720   2.389       .  S
Zr1713     O1715   2.434       .  S
Zr1713     O1737   2.437       .  S
Zr1714     O1717   2.394       .  S
Zr1714     O1718   2.395       .  S
Zr1714     O1740   2.435       .  S
Zr1714     O1741   2.439       .  S
Zr1714     O1716   2.439       .  S
O1715      H1752   0.990       .  S
O1716      H1747   0.990       .  S
O1716      H1761   0.990       .  S
O1718      H1744   0.965       .  S
O1719     Zr4465   2.371   1_456  S
O1720     Zr4465   2.372   1_456  S
O1720      H1745   0.965   1_455  S
C1721      C2370   1.473       .  S
C1722      C2437   1.496       .  S
C1723      C2626   1.492       .  S
O1724      H1760   0.990       .  S
O1725      C1727   1.291   1_554  A
O1726      C1727   1.280       .  A
C1727      C2453   1.504       .  S
O1728     Zr1729   2.440       .  S
O1728      H1757   0.990       .  S
Zr1729     O1734   2.428   1_554  S
Zr1729     O4445   2.389       .  S
Zr1729     O4446   2.395   1_554  S
Zr1729     O4455   2.371   1_554  S
Zr1729     O4456   2.372   1_554  S
Zr1729     O1732   2.437       .  S
Zr1729     O1733   2.442   1_554  S
O1730     Zr4447   2.437       .  S
O1730      C1735   1.286       .  A
O1731      H1748   0.990       .  S
O1731      H1763   0.989   1_455  S
O1732      H1749   0.990       .  S
O1733      H1753   0.990   1_556  S
O1733      H1762   0.989       .  S
O1734      C1735   1.283       .  A
C1735      C2354   1.478       .  S
O1736      H1755   0.989       .  S
O1736      H1759   0.989       .  S
O1737      H1751   0.990       .  S
O1737      H1758   0.990       .  S
O1738      C1742   1.285       .  A
O1739      C1742   1.286       .  A
O1740      H1750   0.990       .  S
O1741      H1754   0.990       .  S
C1742      C2386   1.485       .  S
Zr1765     O1767   2.447       .  S
Zr1765     O1768   2.439       .  S
Zr1765     O1771   2.430   1_554  S
Zr1765     O1773   2.386       .  S
Zr1765     O1774   2.377   1_554  S
Zr1765     O1775   2.412       .  S
Zr1765     O1776   2.407   1_554  S
Zr1765     O1766   2.443       .  S
O1766      H1822   0.991       .  S
O1766      H1830   0.990       .  S
O1767      C1787   1.286   1_554  A
O1768      C1789   1.285       .  A
O1769     Zr1779   2.445       .  S
O1769      C1788   1.287       .  A
O1770     Zr1778   2.455       .  S
O1770      C1789   1.288       .  A
O1771      C1788   1.283       .  A
O1772     Zr1780   2.418       .  S
O1772      C1787   1.280       .  A
O1773     Zr1778   2.406       .  S
O1773     Zr1780   2.385   1_554  S
O1774     Zr1779   2.383       .  S
O1774     Zr1780   2.377       .  S
O1774      H1809   0.966       .  S
O1775     Zr1778   2.409       .  S
O1775     Zr1795   2.383       .  S
O1775      H1812   0.964       .  S
O1776     Zr1779   2.384       .  S
O1776     Zr1795   2.398   1_556  S
Zr1777     O1804   2.453       .  S
Zr1777     O1783   2.403       .  S
Zr1777     O1784   2.408       .  S
Zr1777     O1785   2.378       .  S
Zr1777     O1786   2.383       .  S
Zr1777     O1802   2.445       .  S
Zr1778     O1784   2.399   1_554  S
Zr1778     O1785   2.388   1_554  S
Zr1778     O1790   2.435       .  S
Zr1779     O1805   2.420       .  S
Zr1779     O1783   2.399       .  S
Zr1779     O1786   2.390       .  S
Zr1779     O1781   2.434       .  S
Zr1779     O1803   2.437       .  S
Zr1780     O1783   2.401       .  S
Zr1780     O1784   2.387       .  S
Zr1780     O1806   2.435       .  S
Zr1780     O1807   2.436       .  S
Zr1780     O1782   2.438       .  S
O1781      H1818   0.990       .  S
O1782      H1813   0.990       .  S
O1782      H1827   0.990       .  S
O1784      H1810   0.966       .  S
O1785     Zr1795   2.374   1_556  S
O1786     Zr1795   2.373   1_556  S
O1786      H1811   0.965       .  S
C1787      C2357   1.478       .  S
C1788      C2325   1.485       .  S
C1789      C2565   1.492       .  S
O1790      H1826   0.990       .  S
O1791      C1793   1.292   1_554  A
O1792      C1793   1.285       .  A
C1793      C2309   1.499       .  S
O1794     Zr1795   2.440       .  S
O1794      H1823   0.990       .  S
Zr1795     O1799   2.443   1_554  S
O1796      C1801   1.286       .  A
O1797      H1814   0.990       .  S
O1797      H1829   0.990       .  S
O1798      H1815   0.990       .  S
O1799      H1819   0.990       .  S
O1799      H1828   0.990       .  S
O1800      C1801   1.281       .  A
C1801      C2373   1.473       .  S
O1802      H1821   0.988       .  S
O1802      H1825   0.990       .  S
O1803      H1817   0.990       .  S
O1803      H1824   0.990       .  S
O1804      C1808   1.288       .  A
O1805      C1808   1.282       .  A
O1806      H1816   0.990       .  S
O1807      H1820   0.990       .  S
C1808      C2341   1.474       .  S
Zr1831     O1833   2.440       .  S
Zr1831     O1834   2.430       .  S
Zr1831     O1837   2.431   1_554  S
Zr1831     O1839   2.385       .  S
Zr1831     O1840   2.376   1_554  S
Zr1831     O1841   2.408       .  S
Zr1831     O1842   2.402   1_554  S
Zr1831     O1832   2.443       .  S
O1832      H1888   0.991       .  S
O1832      H1896   0.990       .  S
O1833      C1853   1.284   1_554  A
O1834      C1855   1.282       .  A
O1835     Zr1845   2.459       .  S
O1835      C1854   1.290       .  A
O1836     Zr1844   2.433       .  S
O1836      C1855   1.284       .  A
O1837      C1854   1.283       .  A
O1838     Zr1846   2.408       .  S
O1838      C1853   1.278       .  A
O1839     Zr1844   2.404       .  S
O1839     Zr1846   2.382   1_554  S
O1840     Zr1845   2.384       .  S
O1840     Zr1846   2.380       .  S
O1840      H1875   0.966       .  S
O1841     Zr1844   2.409       .  S
O1841     Zr1861   2.383       .  S
O1841      H1878   0.965       .  S
O1842     Zr1845   2.383       .  S
O1842     Zr1861   2.395   1_556  S
Zr1843     O1862   2.444       .  S
Zr1843     O1870   2.439       .  S
Zr1843     O1858   2.450       .  S
Zr1843     O1849   2.404       .  S
Zr1843     O1850   2.400       .  S
Zr1843     O1851   2.376   1_556  S
Zr1843     O1852   2.387       .  S
Zr1843     O1868   2.447       .  S
Zr1844     O1857   2.453       .  S
Zr1844     O1850   2.394   1_554  S
Zr1844     O1851   2.391       .  S
Zr1844     O1863   2.435       .  S
Zr1844     O1856   2.436       .  S
Zr1845     O1871   2.420       .  S
Zr1845     O1849   2.400       .  S
Zr1845     O1852   2.394       .  S
Zr1845     O1847   2.434       .  S
Zr1845     O1869   2.437       .  S
Zr1846     O1849   2.394       .  S
Zr1846     O1850   2.383       .  S
Zr1846     O1872   2.435       .  S
Zr1846     O1873   2.436       .  S
Zr1846     O1848   2.438       .  S
O1847      H1884   0.990       .  S
O1848      H1879   0.990       .  S
O1848      H1893   0.990       .  S
O1850      H1876   0.965       .  S
O1851     Zr1861   2.382       .  S
O1852     Zr1861   2.370   1_556  S
O1852      H1877   0.966       .  S
C1853      C2402   1.466       .  S
C1854      C2306   1.500       .  S
C1855      C2501   1.471       .  S
O1856      H1892   0.990       .  S
O1857      C1859   1.288   1_554  A
O1858      C1859   1.288       .  A
C1859      C2322   1.494       .  S
O1860     Zr1861   2.439       .  S
O1860      H1889   0.990       .  S
Zr1861     O1866   2.417   1_554  S
Zr1861     O1864   2.437       .  S
Zr1861     O1865   2.441   1_554  S
O1862      C1867   1.287       .  A
O1863      H1880   0.990       .  S
O1863      H1895   0.990       .  S
O1864      H1881   0.990       .  S
O1865      H1885   0.990   1_556  S
O1865      H1894   0.989       .  S
O1866      C1867   1.281       .  A
C1867      C2418   1.483       .  S
O1868      H1887   0.990       .  S
O1868      H1891   0.990       .  S
O1869      H1883   0.990       .  S
O1869      H1890   0.990       .  S
O1870      C1874   1.285       .  A
O1871      C1874   1.284       .  A
O1872      H1882   0.990       .  S
O1873      H1886   0.990       .  S
C1874      C2293   1.497       .  S
Zr1897     O4635   2.437       .  S
Zr1897     O1900   2.438   1_655  S
Zr1897     O4639   2.411       .  S
Zr1897     O1905   2.374   1_655  S
Zr1897     O4642   2.385       .  S
Zr1897     O1907   2.407   1_655  S
Zr1897     O1908   2.404   1_655  S
Zr1897     O4634   2.438       .  S
O1898     Zr4633   2.438       .  S
O1898      H1954   0.990       .  S
O1898      H4698   0.990       .  S
O1899     Zr4633   2.437       .  S
O1899      C1919   1.284       .  A
O1900      C1921   1.284       .  A
O1901     Zr4647   2.458       .  S
O1901      C1920   1.290       .  A
O1902     Zr1910   2.455       .  S
O1902      C1921   1.291       .  A
O1903     Zr4633   2.411       .  S
O1903      C1920   1.282       .  A
O1904     Zr4648   2.403       .  S
O1904      C1919   1.278       .  A
O1905     Zr1910   2.387       .  S
O1905     Zr1912   2.371       .  S
O1906     Zr4633   2.385       .  S
O1906     Zr4647   2.394       .  S
O1906     Zr4648   2.381       .  S
O1906      H1941   0.966       .  S
O1907     Zr1910   2.397       .  S
O1907     Zr1927   2.414       .  S
O1907      H1944   0.966       .  S
O1908     Zr1911   2.390       .  S
O1908     Zr1927   2.397       .  S
Zr1909     O1928   2.413       .  S
Zr1909     O1936   2.412       .  S
Zr1909     O1924   2.416       .  S
Zr1909     O1915   2.386       .  S
Zr1909     O1916   2.398       .  S
Zr1909     O1917   2.375       .  S
Zr1909     O1918   2.380       .  S
Zr1909     O1934   2.442       .  S
Zr1910     O1923   2.454       .  S
Zr1910     O1916   2.402       .  S
Zr1910     O1917   2.391       .  S
Zr1910     O1929   2.435       .  S
Zr1910     O1922   2.432       .  S
Zr1911     O4637   2.458   1_455  S
Zr1911     O1937   2.453       .  S
Zr1911     O4642   2.394   1_455  S
Zr1911     O1915   2.389       .  S
Zr1911     O1918   2.396       .  S
Zr1911     O1913   2.436       .  S
Zr1911     O4671   2.436   1_455  S
Zr1912     O4640   2.403   1_455  S
Zr1912     O4642   2.381   1_455  S
Zr1912     O1915   2.376       .  S
Zr1912     O1916   2.390       .  S
Zr1912     O4674   2.435   1_455  S
Zr1912     O1939   2.435       .  S
Zr1912     O1914   2.435       .  S
O1913      H4686   0.990   1_455  S
O1914      H1945   0.990   1_455  S
O1914      H1959   0.990       .  S
O1916      H1942   0.966       .  S
O1917     Zr1927   2.375       .  S
O1918     Zr1927   2.386       .  S
O1918      H1943   0.966       .  S
C1920      C2258   1.485       .  S
C1921      C2642   1.511       .  S
O1922      H1958   0.990       .  S
O1923      C1925   1.288       .  A
O1924      C1925   1.281       .  A
C1925      C2277   1.503       .  S
O1926     Zr1927   2.440       .  S
O1926      H1955   0.990       .  S
Zr1927     O1932   2.438       .  S
Zr1927     O1930   2.436       .  S
Zr1927     O1931   2.442       .  S
O1928      C1933   1.280       .  A
O1929      H1946   0.990       .  S
O1929      H1961   0.990       .  S
O1930      H1947   0.990       .  S
O1931      H1951   0.990       .  S
O1931      H1960   0.989       .  S
O1932      C1933   1.284       .  A
C1933      C2245   1.479       .  S
O1934      H1953   0.990       .  S
O1934      H1957   0.990       .  S
O1935     Zr4647   2.436       .  S
O1935      H1949   0.990       .  S
O1935      H1956   0.990       .  S
O1936      C1940   1.283       .  A
O1937      C1940   1.287       .  A
O1938     Zr4648   2.435       .  S
O1938      H1948   0.990       .  S
O1939      H1952   0.990       .  S
C1940      C2469   1.487       .  S
H1950      O4649   0.990       .  S
H1962      O4634   0.990   1_455  S
Zr1963     O4701   2.410   1_455  S
Zr1963     O1966   2.413       .  S
Zr1963     O4705   2.408   1_455  S
Zr1963     O1971   2.377       .  S
Zr1963     O4708   2.382   1_455  S
Zr1963     O1973   2.395       .  S
Zr1963     O1974   2.393       .  S
Zr1963     O1964   2.437       .  S
O1964      H4756   0.990   1_455  S
O1964      H2028   0.990       .  S
O1965     Zr4699   2.410       .  S
O1965      C1985   1.280       .  A
O1966      C1987   1.282       .  A
O1967     Zr4713   2.439       .  S
O1967      C1986   1.287       .  A
O1968     Zr1976   2.439       .  S
O1968      C1987   1.285       .  A
O1969     Zr4699   2.408       .  S
O1969      C1986   1.280       .  A
O1970     Zr4714   2.432       .  S
O1970      C1985   1.284       .  A
O1971     Zr1976   2.391       .  S
O1971     Zr1978   2.368       .  S
O1972     Zr4699   2.382       .  S
O1972     Zr4713   2.386       .  S
O1972     Zr4714   2.375       .  S
O1972      H2007   0.966       .  S
O1973     Zr1976   2.399       .  S
O1973     Zr1993   2.395       .  S
O1973      H2010   0.966       .  S
O1974     Zr1977   2.392       .  S
O1974     Zr1993   2.387       .  S
Zr1975     O1994   2.432       .  S
Zr1975     O2002   2.405       .  S
Zr1975     O1990   2.403       .  S
Zr1975     O1981   2.389       .  S
Zr1975     O1982   2.399       .  S
Zr1975     O1983   2.372       .  S
Zr1975     O1984   2.377       .  S
Zr1975     O2000   2.435       .  S
Zr1976     O1989   2.457       .  S
Zr1976     O1982   2.383       .  S
Zr1976     O1983   2.379       .  S
Zr1976     O1995   2.435       .  S
Zr1976     O1988   2.434       .  S
Zr1977     O4703   2.439   1_455  S
Zr1977     O2003   2.447       .  S
Zr1977     O4708   2.386   1_455  S
Zr1977     O1981   2.384       .  S
Zr1977     O1984   2.381       .  S
Zr1977     O1979   2.435       .  S
Zr1977     O4737   2.437   1_455  S
Zr1978     O4706   2.432   1_455  S
Zr1978     O4708   2.375   1_455  S
Zr1978     O1981   2.391       .  S
Zr1978     O1982   2.400       .  S
Zr1978     O4740   2.435   1_455  S
Zr1978     O2005   2.438       .  S
Zr1978     O1980   2.437       .  S
O1979      H4752   0.990       .  S
O1980      H2011   0.990   1_455  S
O1980      H2025   0.990       .  S
O1982      H2008   0.965       .  S
O1983     Zr1993   2.375       .  S
O1984     Zr1993   2.384       .  S
O1984      H2009   0.966       .  S
C1985      C2162   1.473       .  S
C1986      C2194   1.480       .  S
C1987      C2581   1.492       .  S
O1988      H2024   0.990       .  S
O1989      C1991   1.291       .  A
O1990      C1991   1.278       .  A
C1991      C2210   1.493       .  S
O1992     Zr1993   2.439       .  S
O1992      H2021   0.990       .  S
Zr1993     O1998   2.408       .  S
Zr1993     O1996   2.436       .  S
Zr1993     O1997   2.440       .  S
O1994      C1999   1.285       .  A
O1995      H2012   0.990       .  S
O1995      H2027   0.990       .  S
O1996      H2013   0.990       .  S
O1997      H2017   0.990       .  S
O1997      H2026   0.990       .  S
O1998      C1999   1.280       .  A
C1999      C2181   1.475       .  S
O2000      H2019   0.988       .  S
O2000      H2023   0.989       .  S
O2001     Zr4713   2.437       .  S
O2001      H2015   0.990       .  S
O2001      H2022   0.990       .  S
O2002      C2006   1.282       .  A
O2003      C2006   1.286       .  A
O2004     Zr4714   2.435       .  S
O2004      H2014   0.990       .  S
O2005      H2018   0.990       .  S
C2006      C2389   1.473       .  S
H2016      O4715   0.990       .  S
H2020      O4700   0.990       .  S
Zr2029     O2031   2.428       .  S
Zr2029     O2032   2.433       .  S
Zr2029     O2035   2.411       .  S
Zr2029     O2037   2.374       .  S
Zr2029     O2038   2.384       .  S
Zr2029     O2039   2.404       .  S
Zr2029     O2040   2.403       .  S
Zr2029     O2030   2.439       .  S
O2030      H2086   0.990       .  S
O2030      H2094   0.990       .  S
O2031      C2051   1.283       .  A
O2032      C2053   1.284       .  A
O2033     Zr2043   2.458       .  S
O2033      C2052   1.289       .  A
O2034     Zr2042   2.458       .  S
O2034      C2053   1.289       .  A
O2035      C2052   1.283       .  A
O2036     Zr2044   2.403       .  S
O2036      C2051   1.279       .  A
O2037     Zr2042   2.391       .  S
O2037     Zr2044   2.374       .  S
O2038     Zr2043   2.392       .  S
O2038     Zr2044   2.379       .  S
O2038      H2073   0.966       .  S
O2039     Zr2042   2.399       .  S
O2039     Zr2059   2.411       .  S
O2039      H2076   0.966       .  S
O2040     Zr2043   2.393       .  S
O2040     Zr2059   2.396       .  S
Zr2041     O2060   2.407       .  S
Zr2041     O2068   2.410       .  S
Zr2041     O2056   2.405       .  S
Zr2041     O2047   2.385       .  S
Zr2041     O2048   2.395       .  S
Zr2041     O2049   2.375       .  S
Zr2041     O2050   2.379       .  S
Zr2041     O2066   2.447       .  S
Zr2042     O2055   2.458       .  S
Zr2042     O2048   2.400       .  S
Zr2042     O2049   2.387       .  S
Zr2042     O2061   2.436       .  S
Zr2042     O2054   2.433       .  S
Zr2043     O2069   2.461       .  S
Zr2043     O2047   2.389       .  S
Zr2043     O2050   2.391       .  S
Zr2043     O2045   2.436       .  S
Zr2043     O2067   2.437       .  S
Zr2044     O2047   2.379       .  S
Zr2044     O2048   2.390       .  S
Zr2044     O2070   2.435       .  S
Zr2044     O2071   2.436       .  S
Zr2044     O2046   2.436       .  S
O2045      H2082   0.990       .  S
O2046      H2077   0.990       .  S
O2046      H2091   0.990       .  S
O2048      H2074   0.966       .  S
O2049     Zr2059   2.372       .  S
O2050     Zr2059   2.383       .  S
O2050      H2075   0.966       .  S
C2052      C2274   1.502       .  S
C2053      C2514   1.493       .  S
O2054      H2090   0.990       .  S
O2055      C2057   1.289       .  A
O2056      C2057   1.280       .  A
C2057      C2261   1.483       .  S
O2058     Zr2059   2.440       .  S
O2058      H2087   0.990       .  S
Zr2059     O2064   2.437       .  S
Zr2059     O2062   2.436       .  S
Zr2059     O2063   2.442       .  S
O2060      C2065   1.279       .  A
O2061      H2078   0.990       .  S
O2061      H2093   0.990       .  S
O2062      H2079   0.990       .  S
O2063      H2083   0.990       .  S
O2063      H2092   0.989       .  S
O2064      C2065   1.285       .  A
C2065      C2165   1.475       .  S
O2066      H2085   0.990       .  S
O2066      H2089   0.990       .  S
O2067      H2081   0.990       .  S
O2067      H2088   0.990       .  S
O2068      C2072   1.282       .  A
O2069      C2072   1.289       .  A
O2070      H2080   0.990       .  S
O2071      H2084   0.990       .  S
C2072      C2338   1.504       .  S
Zr2095     O2097   2.414       .  S
Zr2095     O2098   2.400       .  S
Zr2095     O2101   2.398       .  S
Zr2095     O2103   2.375       .  S
Zr2095     O2104   2.378       .  S
Zr2095     O2105   2.393       .  S
Zr2095     O2106   2.388       .  S
Zr2095     O2096   2.437       .  S
O2096      H2152   0.989       .  S
O2096      H2160   0.990       .  S
O2097      C2117   1.281       .  A
O2098      C2119   1.277       .  A
O2099     Zr2109   2.447       .  S
O2099      C2118   1.289       .  A
O2100     Zr2108   2.451       .  S
O2100      C2119   1.290       .  A
O2101      C2118   1.277       .  A
O2102     Zr2110   2.437       .  S
O2102      C2117   1.285       .  A
O2103     Zr2108   2.385       .  S
O2103     Zr2110   2.366       .  S
O2104     Zr2109   2.381       .  S
O2104     Zr2110   2.374       .  S
O2104      H2139   0.966       .  S
O2105     Zr2108   2.391       .  S
O2105     Zr2125   2.395       .  S
O2105      H2142   0.966       .  S
O2106     Zr2109   2.385       .  S
O2106     Zr2125   2.386       .  S
Zr2107     O2126   2.442       .  S
Zr2107     O2134   2.421       .  S
Zr2107     O2122   2.422       .  S
Zr2107     O2113   2.398       .  S
Zr2107     O2114   2.408       .  S
Zr2107     O2115   2.377       .  S
Zr2107     O2116   2.382       .  S
Zr2107     O2132   2.440       .  S
Zr2108     O2121   2.442       .  S
Zr2108     O2114   2.395       .  S
Zr2108     O2115   2.391       .  S
Zr2108     O2127   2.436       .  S
Zr2108     O2120   2.434       .  S
Zr2109     O2135   2.430       .  S
Zr2109     O2113   2.394       .  S
Zr2109     O2116   2.391       .  S
Zr2109     O2111   2.435       .  S
Zr2109     O2133   2.438       .  S
Zr2110     O2113   2.392       .  S
Zr2110     O2114   2.399       .  S
Zr2110     O2136   2.434       .  S
Zr2110     O2137   2.436       .  S
Zr2110     O2112   2.437       .  S
O2111      H2148   0.990       .  S
O2112      H2143   0.990       .  S
O2112      H2157   0.990       .  S
O2114      H2140   0.966       .  S
O2115     Zr2125   2.379       .  S
O2116     Zr2125   2.387       .  S
O2116      H2141   0.966       .  S
C2117      C2242   1.477       .  S
C2118      C2213   1.490       .  S
C2119      C2485   1.494       .  S
O2120      H2156   0.990       .  S
O2121      C2123   1.287       .  A
O2122      C2123   1.282       .  A
C2123      C2197   1.486       .  S
O2124     Zr2125   2.439       .  S
O2124      H2153   0.990       .  S
Zr2125     O2130   2.402       .  S
Zr2125     O2128   2.437       .  S
Zr2125     O2129   2.439       .  S
O2126      C2131   1.285       .  A
O2127      H2144   0.990       .  S
O2127      H2159   0.990       .  S
O2128      H2145   0.990       .  S
O2129      H2149   0.990       .  S
O2129      H2158   0.990       .  S
O2130      C2131   1.277       .  A
C2131      C2226   1.464       .  S
O2132      H2151   0.991       .  S
O2132      H2155   0.990       .  S
O2133      H2147   0.990       .  S
O2133      H2154   0.990       .  S
O2134      C2138   1.279       .  A
O2135      C2138   1.282       .  A
O2136      H2146   0.990       .  S
O2137      H2150   0.990       .  S
C2138      C2290   1.465       .  S
C2161      C2162   1.401       .  A
C2161      C2166   1.400       .  A
C2161      H2168   1.084       .  S
C2162      C2163   1.417       .  A
C2163      C2164   1.403       .  A
C2163      C2170   1.510       .  S
C2164      C2165   1.402       .  A
C2164      H2169   1.084       .  S
C2165      C2166   1.417       .  A
C2166      C2167   1.510       .  S
C2167      H2171   1.111       .  S
C2167      H2172   1.110       .  S
C2167      H2173   1.109       .  S
C2170      H2174   1.109       .  S
C2170      H2175   1.111       .  S
C2170      H2176   1.111       .  S
C2177      C2178   1.407       .  A
C2177      C2182   1.400       .  A
C2177      H2184   1.084       .  S
C2178      C2179   1.415       .  A
C2179      C2180   1.401       .  A
C2180      C2181   1.406       .  A
C2180      H2185   1.084       .  S
C2181      C2182   1.411       .  A
C2182      C2183   1.507       .  S
C2183      H2187   1.111       .  S
C2183      H2188   1.111       .  S
C2183      H2189   1.109       .  S
C2186      H2190   1.110       .  S
C2186      H2191   1.111       .  S
C2193      C2194   1.400       .  A
C2193      C2198   1.400       .  A
C2193      H2200   1.085       .  S
C2194      C2195   1.417       .  A
C2195      C2196   1.404       .  A
C2195      C2202   1.507       .  S
C2196      C2197   1.403       .  A
C2196      H2201   1.084       .  S
C2197      C2198   1.419       .  A
C2198      C2199   1.504       .  S
C2199      H2203   1.111       .  S
C2199      H2204   1.110       .  S
C2199      H2205   1.106       .  S
C2202      H2206   1.108       .  S
C2202      H2207   1.110       .  S
C2202      H2208   1.111       .  S
C2209      C2210   1.403       .  A
C2209      C2214   1.402       .  A
C2209      H2216   1.084       .  S
C2210      C2211   1.425       .  A
C2211      C2212   1.401       .  A
C2211      C2218   1.508       .  S
C2212      C2213   1.401       .  A
C2212      H2217   1.084       .  S
C2213      C2214   1.422       .  A
C2214      C2215   1.508       .  S
C2215      H2219   1.111       .  S
C2215      H2220   1.108       .  S
C2215      H2221   1.110       .  S
C2218      H2222   1.105       .  S
C2218      H2223   1.107       .  S
C2218      H2224   1.111       .  S
C2225      C2226   1.400       .  A
C2225      C2230   1.401       .  A
C2225      H2232   1.084       .  S
C2226      C2227   1.411       .  A
C2227      C2228   1.402       .  A
C2227      C2234   1.507       .  S
C2228      C2229   1.401       .  A
C2228      H2233   1.084       .  S
C2229      C2230   1.412       .  A
C2230      C2231   1.508       .  S
C2231      H2235   1.111       .  S
C2231      H2236   1.109       .  S
C2231      H2237   1.111       .  S
C2234      H2238   1.111       .  S
C2234      H2239   1.109       .  S
C2234      H2240   1.111       .  S
C2241      C2242   1.401       .  A
C2241      C2246   1.401       .  A
C2241      H2248   1.084       .  S
C2242      C2243   1.417       .  A
C2243      C2244   1.405       .  A
C2243      C2250   1.509       .  S
C2244      C2245   1.402       .  A
C2244      H2249   1.084       .  S
C2245      C2246   1.417       .  A
C2246      C2247   1.508       .  S
C2247      H2251   1.111       .  S
C2247      H2252   1.111       .  S
C2247      H2253   1.108       .  S
C2250      H2254   1.108       .  S
C2250      H2255   1.111       .  S
C2250      H2256   1.111       .  S
C2257      C2258   1.409       .  A
C2257      C2262   1.407       .  A
C2257      H2264   1.084       .  S
C2258      C2259   1.412       .  A
C2259      C2260   1.402       .  A
C2259      C2266   1.506       .  S
C2260      C2261   1.406       .  A
C2260      H2265   1.083       .  S
C2261      C2262   1.412       .  A
C2262      C2263   1.507       .  S
C2263      H2267   1.111       .  S
C2263      H2268   1.111       .  S
C2263      H2269   1.109       .  S
C2266      H2270   1.109       .  S
C2266      H2271   1.110       .  S
C2266      H2272   1.111       .  S
C2273      C2274   1.412       .  A
C2273      C2278   1.406       .  A
C2273      H2280   1.083       .  S
C2274      C2275   1.418       .  A
C2275      C2276   1.405       .  A
C2275      C2282   1.509       .  S
C2276      C2277   1.412       .  A
C2276      H2281   1.081       .  S
C2277      C2278   1.418       .  A
C2278      C2279   1.508       .  S
C2279      H2283   1.111       .  S
C2279      H2284   1.110       .  S
C2279      H2285   1.109       .  S
C2282      H2286   1.110       .  S
C2282      H2287   1.109       .  S
C2282      H2288   1.111       .  S
C2289      C2290   1.398       .  A
C2289      C2294   1.403       .  A
C2289      H2296   1.085       .  S
C2290      C2291   1.402       .  A
C2291      C2292   1.402       .  A
C2291      C2298   1.506       .  S
C2292      C2293   1.415       .  A
C2292      H2297   1.083       .  S
C2293      C2294   1.425       .  A
C2294      C2295   1.509       .  S
C2295      H2299   1.111       .  S
C2295      H2300   1.110       .  S
C2295      H2301   1.108       .  S
C2298      H2302   1.110       .  S
C2298      H2303   1.111       .  S
C2298      H2304   1.111       .  S
C2305      C2306   1.406       .  A
C2305      C2310   1.412       .  A
C2305      H2312   1.084       .  S
C2306      C2307   1.421       .  A
C2307      C2308   1.409       .  A
C2307      C2314   1.509   1_556  S
C2308      C2309   1.405       .  A
C2308      H2313   1.084   1_556  S
C2309      C2310   1.421       .  A
C2310      C2311   1.509       .  S
C2311      H2315   1.111       .  S
C2311      H2316   1.109       .  S
C2311      H2317   1.111       .  S
C2314      H2318   1.109   1_554  S
C2314      H2319   1.108       .  S
C2314      H2320   1.111       .  S
C2321      C2322   1.401       .  A
C2321      C2326   1.402       .  A
C2321      H2328   1.071       .  S
C2322      C2323   1.418       .  A
C2323      C2324   1.412       .  A
C2323      C2330   1.507       .  S
C2324      C2325   1.407       .  A
C2324      H2329   1.084       .  S
C2325      C2326   1.411       .  A
C2326      C2327   1.508       .  S
C2327      H2331   1.110       .  S
C2327      H2332   1.111       .  S
C2327      H2333   1.108       .  S
C2330      H2334   1.109   1_556  S
C2330      H2335   1.111       .  S
C2330      H2336   1.111       .  S
C2337      C2338   1.414       .  A
C2337      C2342   1.399       .  A
C2337      H2344   1.083       .  S
C2338      C2339   1.424       .  A
C2339      C2340   1.412       .  A
C2339      C2346   1.507       .  S
C2340      C2341   1.402       .  A
C2340      H2345   1.084       .  S
C2341      C2342   1.405       .  A
C2342      C2343   1.508       .  S
C2343      H2347   1.111       .  S
C2343      H2348   1.108       .  S
C2343      H2349   1.110       .  S
C2346      H2350   1.109       .  S
C2346      H2351   1.110       .  S
C2346      H2352   1.111       .  S
C2353      C2354   1.404       .  A
C2353      C2358   1.406       .  A
C2353      H2360   1.084       .  S
C2354      C2355   1.413       .  A
C2355      C2356   1.404       .  A
C2355      C2362   1.507       .  S
C2356      C2357   1.403       .  A
C2356      H2361   1.085       .  S
C2357      C2358   1.413       .  A
C2358      C2359   1.506       .  S
C2359      H2363   1.111   1_556  S
C2359      H2364   1.109       .  S
C2359      H2365   1.111   1_556  S
C2362      H2366   1.111       .  S
C2362      H2367   1.108       .  S
C2362      H2368   1.111       .  S
C2369      C2370   1.404       .  A
C2369      C2374   1.404       .  A
C2369      H2376   1.084       .  S
C2370      C2371   1.410   1_556  A
C2371      C2372   1.405       .  A
C2371      C2378   1.506       .  S
C2372      C2373   1.405   1_554  A
C2372      H2377   1.084       .  S
C2373      C2374   1.410       .  A
C2374      C2375   1.507       .  S
C2375      H2379   1.111       .  S
C2375      H2380   1.110       .  S
C2375      H2381   1.111       .  S
C2378      H2382   1.111       .  S
C2378      H2383   1.110       .  S
C2378      H2384   1.111       .  S
C2385      C2386   1.411       .  A
C2385      C2390   1.409       .  A
C2385      H2392   1.084       .  S
C2386      C2387   1.417       .  A
C2387      C2388   1.392       .  A
C2387      C2394   1.507       .  S
C2388      C2389   1.398       .  A
C2388      H2393   1.079       .  S
C2389      C2390   1.408       .  A
C2390      C2391   1.505       .  S
C2391      H2395   1.111       .  S
C2391      H2396   1.110   1_455  S
C2391      H2397   1.110       .  S
C2394      H2398   1.109       .  S
C2394      H2399   1.107       .  S
C2394      H2400   1.111       .  S
C2401      C2402   1.402       .  A
C2401      C2406   1.401       .  A
C2401      H2408   1.084       .  S
C2402      C2403   1.409       .  A
C2403      C2404   1.403       .  A
C2403      C2410   1.506   1_556  S
C2404      C2405   1.402       .  A
C2404      H2409   1.083       .  S
C2405      C2406   1.409       .  A
C2406      C2407   1.506       .  S
C2407      H2411   1.111       .  S
C2407      H2412   1.111       .  S
C2407      H2413   1.109       .  S
C2410      H2414   1.110   1_554  S
C2410      H2415   1.111       .  S
C2410      H2416   1.111       .  S
C2417      C2418   1.404       .  A
C2417      C2422   1.407       .  A
C2417      H2424   1.084       .  S
C2418      C2419   1.413       .  A
C2419      C2420   1.401       .  A
C2419      C2426   1.498       .  S
C2420      C2421   1.399       .  A
C2420      H2425   1.085       .  S
C2421      C2422   1.415       .  A
C2422      C2423   1.505       .  S
C2423      H2427   1.111       .  S
C2423      H2428   1.106   1_556  S
C2423      H2429   1.111       .  S
C2426      H2430   1.111       .  S
C2426      H2431   1.109       .  S
C2426      H2432   1.111       .  S
C2433      C2434   1.406       .  A
C2433      C2438   1.408       .  A
C2433      H2440   1.084   1_556  S
C2434      C2435   1.423       .  A
C2435      C2436   1.408       .  A
C2435      C2442   1.508       .  S
C2436      C2437   1.404       .  A
C2436      H2441   1.084       .  S
C2437      C2438   1.420       .  A
C2438      C2439   1.509   1_556  S
C2439      H2443   1.111       .  S
C2439      H2444   1.111   1_554  S
C2439      H2445   1.107       .  S
C2442      H2446   1.109       .  S
C2442      H5183   1.107   1_455  S
C2442      H2448   1.111   1_455  S
H2447      C5178   1.107       .  S
C2449      C2450   1.406       .  A
C2449      C2454   1.407       .  A
C2449      H2456   1.083       .  S
C2450      C2451   1.425   1_556  A
C2451      C2452   1.405       .  A
C2451      C2458   1.504       .  S
C2452      C2453   1.404   1_554  A
C2452      H2457   1.083       .  S
C2453      C2454   1.426       .  A
C2454      C2455   1.510       .  S
C2455      H2459   1.111       .  S
C2455      H2460   1.108       .  S
C2455      H2461   1.110       .  S
C2458      H2462   1.109       .  S
C2458      H2463   1.105       .  S
C2458      H2464   1.111       .  S
C2465      C2466   1.411       .  A
C2465      C2470   1.412       .  A
C2465      H2472   1.084       .  S
C2466      C2467   1.415       .  A
C2467      C2468   1.397       .  A
C2467      C2474   1.505       .  S
C2468      C2469   1.403       .  A
C2468      H2473   1.083       .  S
C2469      C2470   1.414       .  A
C2470      C2471   1.505       .  S
C2471      H2475   1.111   1_455  S
C2471      H2476   1.110   1_455  S
C2471      H2477   1.110       .  S
C2474      H2478   1.108       .  S
C2474      H2479   1.109       .  S
C2474      H2480   1.111       .  S
C2481      C2482   1.402       .  A
C2481      C2486   1.404       .  A
C2481      H2488   1.084       .  S
C2482      C2483   1.424       .  A
C2483      C2484   1.401       .  A
C2483      C2490   1.510       .  S
C2484      C2485   1.403       .  A
C2484      H2489   1.084       .  S
C2485      C2486   1.426       .  A
C2486      C2487   1.510       .  S
C2487      H2491   1.111       .  S
C2487      H2492   1.108       .  S
C2487      H2493   1.110       .  S
C2490      H2494   1.110       .  S
C2490      H2495   1.110       .  S
C2490      H2496   1.111       .  S
C2497      C2498   1.404       .  A
C2497      C2502   1.401       .  A
C2497      H2504   1.084       .  S
C2498      C2499   1.408       .  A
C2499      C2500   1.404       .  A
C2499      C2506   1.506       .  S
C2500      C2501   1.406       .  A
C2500      H2505   1.084       .  S
C2501      C2502   1.411       .  A
C2502      C2503   1.508       .  S
C2503      H2507   1.111       .  S
C2503      H2508   1.109       .  S
C2503      H2509   1.110       .  S
C2506      H2510   1.110       .  S
C2506      H2511   1.110       .  S
C2506      H2512   1.111       .  S
C2513      C2514   1.408       .  A
C2513      C2518   1.410       .  A
C2513      H2520   1.084       .  S
C2514      C2515   1.415       .  A
C2515      C2516   1.410       .  A
C2515      C2522   1.507       .  S
C2516      C2517   1.406       .  A
C2516      H2521   1.084       .  S
C2517      C2518   1.414       .  A
C2519      H2523   1.111   1_545  S
C2519      H2524   1.111   1_545  S
C2519      H2525   1.109       .  S
C2522      H2526   1.109       .  S
C2522      H2527   1.111       .  S
C2522      H2528   1.111       .  S
C2529      C2530   1.401       .  A
C2529      C2534   1.400       .  A
C2529      H2536   1.085       .  S
C2530      C2531   1.411       .  A
C2531      C2532   1.402       .  A
C2531      C2538   1.507       .  S
C2532      C2533   1.402       .  A
C2532      H2537   1.084       .  S
C2533      C2534   1.413       .  A
C2534      C2535   1.508       .  S
C2535      H2539   1.111       .  S
C2535      H2540   1.109       .  S
C2535      H2541   1.111       .  S
C2538      H2542   1.111       .  S
C2538      H2543   1.109       .  S
C2538      H2544   1.111       .  S
C2545      C2546   1.404       .  A
C2545      C2550   1.398       .  A
C2545      H2552   1.085       .  S
C2546      C2547   1.413       .  A
C2547      C2548   1.401       .  A
C2547      C2554   1.509       .  S
C2548      C2549   1.404       .  A
C2548      H2553   1.085       .  S
C2549      C2550   1.412       .  A
C2550      C2551   1.509       .  S
C2551      H2555   1.111       .  S
C2551      H2556   1.111       .  S
C2551      H2557   1.110       .  S
C2554      H2558   1.109       .  S
C2554      H2559   1.111       .  S
C2554      H2560   1.111       .  S
C2561      C2566   1.410       .  A
C2561      H2568   1.084       .  S
C2562      C2563   1.414       .  A
C2563      C2564   1.402       .  A
C2563      C2570   1.509       .  S
C2564      C2565   1.405       .  A
C2564      H2569   1.085       .  S
C2566      C2567   1.506       .  S
C2567      H2571   1.111       .  S
C2567      H2572   1.109       .  S
C2567      H2573   1.110       .  S
C2570      H2574   1.110       .  S
C2570      H2575   1.108       .  S
C2570      H2576   1.111       .  S
C2577      C2578   1.409       .  A
C2577      C2582   1.402       .  A
C2577      H2584   1.084       .  S
C2578      C5315   1.415   1_455  A
C2579      C5314   1.415       .  A
C2579      C5316   1.404       .  A
C2579      C2586   1.507       .  S
C2580      C5315   1.404   1_455  A
C2580      C2581   1.410       .  A
C2580      H5321   1.084   1_455  S
C2581      C2582   1.417       .  A
C2582      C2583   1.509       .  S
C2583      H2587   1.111       .  S
C2583      H2588   1.110       .  S
C2583      H2589   1.110       .  S
H2585      C5316   1.084       .  S
C2586      H2590   1.110       .  S
C2586      H2591   1.108       .  S
C2586      H2592   1.111       .  S
C2593      C2594   1.406       .  A
C2593      C2598   1.404       .  A
C2593      H2600   1.084       .  S
C2594      C2595   1.422       .  A
C2595      C2596   1.403       .  A
C2595      C2602   1.508       .  S
C2596      C2597   1.404       .  A
C2596      H2601   1.084       .  S
C2597      C2598   1.419       .  A
C2598      C2599   1.509       .  S
C2599      H2603   1.111       .  S
C2599      H2604   1.110       .  S
C2599      H2605   1.109       .  S
C2602      H2606   1.109       .  S
C2602      H2607   1.109       .  S
C2602      H2608   1.111       .  S
C2609      C2610   1.403       .  A
C2609      C2614   1.405       .  A
C2609      H2616   1.084       .  S
C2610      C2611   1.416       .  A
C2611      C2612   1.403       .  A
C2611      C2618   1.505       .  S
C2612      C2613   1.401       .  A
C2612      H2617   1.085       .  S
C2613      C2614   1.415       .  A
C2614      C2615   1.506       .  S
C2615      H2619   1.111       .  S
C2615      H2620   1.108       .  S
C2615      H2621   1.111       .  S
C2618      H2622   1.111       .  S
C2618      H2623   1.105       .  S
C2618      H2624   1.111       .  S
C2625      C2626   1.410       .  A
C2625      C2630   1.397       .  A
C2625      H2632   1.083       .  S
C2626      C2627   1.424       .  A
C2627      C2628   1.405       .  A
C2627      C2634   1.505       .  S
C2628      C2629   1.396       .  A
C2628      H2633   1.084       .  S
C2629      C2630   1.406       .  A
C2630      C2631   1.509       .  S
C2631      H2635   1.111       .  S
C2631      H2636   1.110       .  S
C2631      H2637   1.110       .  S
C2634      H2638   1.110       .  S
C2634      H2639   1.108       .  S
C2634      H2640   1.111       .  S
C2641      C2642   1.406       .  A
C2641      C2646   1.408       .  A
C2641      H2648   1.083       .  S
C2642      C5379   1.425   1_455  A
C2643      C5378   1.425       .  A
C2643      C2644   1.414       .  A
C2643      C2650   1.507       .  S
C2644      C5381   1.409       .  A
C2644      H2649   1.083       .  S
C2645      C5380   1.409   1_455  A
C2645      C2646   1.427       .  A
C2646      C2647   1.510       .  S
C2647      H2651   1.111       .  S
C2647      H2652   1.109       .  S
C2647      H2653   1.110       .  S
C2650      H2654   1.109       .  S
C2650      H2655   1.110       .  S
C2650      H2656   1.111       .  S
C2657      C2658   1.402       .  A
C2657      C2662   1.400       .  A
C2657      H2664   1.084       .  S
C2658      C2659   1.415       .  A
C2659      C2660   1.401       .  A
C2659      C2666   1.509       .  S
C2660      C2661   1.401       .  A
C2660      H2665   1.084       .  S
C2661      C2662   1.413       .  A
C2662      C2663   1.509       .  S
C2663      H2667   1.111       .  S
C2663      H2668   1.111       .  S
C2663      H5405   1.108   1_455  S
C2666      H2670   1.109       .  S
C2666      H5407   1.111   1_455  S
C2666      H2672   1.111       .  S
H2669      C5399   1.108       .  S
H2671      C5402   1.111       .  S
C2673      C2674   1.404       .  A
C2673      C2678   1.400       .  A
C2673      H2680   1.084       .  S
C2674      C4127   1.468       .  S
C2674      C5411   1.411   1_455  A
C2675      C5410   1.411       .  A
C2675      C2676   1.398       .  A
C2675      C2682   1.505       .  S
C2676      C5413   1.402       .  A
C2676      H2681   1.085       .  S
C2677      C5412   1.402   1_455  A
C2677      C2678   1.412       .  A
C2678      C2679   1.509       .  S
C2679      H2683   1.111       .  S
C2679      H2684   1.111       .  S
C2679      H2685   1.110       .  S
C2682      H2686   1.109       .  S
C2682      H2687   1.111       .  S
C2682      H2688   1.111       .  S
C2689      C2690   1.402       .  A
C2689      C2694   1.403       .  A
C2689      H2696   1.080       .  S
C2691      C2692   1.410       .  A
C2691      C2698   1.507       .  S
C2692      C2693   1.407   1_565  A
C2692      H2697   1.084       .  S
C2694      C2695   1.507       .  S
C2695      H2699   1.110       .  S
C2695      H2700   1.108       .  S
C2695      H2701   1.111       .  S
C2698      H2702   1.111       .  S
C2698      H2703   1.109       .  S
C2698      H2704   1.111       .  S
C2705      C2706   1.401       .  A
C2705      C2710   1.405       .  A
C2705      H2712   1.084       .  S
C2707      C2708   1.407       .  A
C2707      C2714   1.506       .  S
C2708      C2709   1.402   1_565  A
C2708      H2713   1.084       .  S
C2710      C2711   1.507       .  S
C2711      H2715   1.111       .  S
C2711      H2716   1.111       .  S
C2711      H2717   1.108       .  S
C2714      H2718   1.109       .  S
C2714      H2719   1.111       .  S
C2714      H2720   1.111       .  S
C2721      C2722   1.408       .  A
C2721      C2726   1.399       .  A
C2721      H2728   1.084       .  S
C2723      C2724   1.410       .  A
C2723      C2730   1.505       .  S
C2724      C2725   1.401   1_565  A
C2724      H5465   1.084   1_455  S
C2725      C4148   1.470       .  S
C2726      C2727   1.510       .  S
C2727      H2731   1.111       .  S
C2727      H2732   1.110       .  S
C2727      H2733   1.108       .  S
H2729      C5460   1.084       .  S
C2730      H2734   1.110       .  S
C2730      H2735   1.109   1_455  S
C2730      H5472   1.111   1_455  S
H2736      C5466   1.111       .  S
Zr2737     O2739   2.426       .  S
Zr2737     O2740   2.464       .  S
Zr2737     O2743   2.439       .  S
Zr2737     O2746   2.388       .  S
Zr2737     O4115   2.406   1_545  S
Zr2737     O4116   2.406   1_545  S
Zr2737     O4106   2.438   1_545  S
O2738     Zr4105   2.438       .  S
O2738      H2794   0.990       .  S
O2738      H2802   0.990       .  S
O2739      C2759   1.283   1_655  A
O2741     Zr2751   2.444       .  S
O2741      C4128   1.287       .  A
O2742     Zr2750   2.428       .  S
O2742      C2761   1.282       .  A
O2743      C2760   1.288       .  A
O2744     Zr2752   2.404       .  S
O2745     Zr2750   2.389       .  S
O2745     Zr2752   2.374       .  S
O2746     Zr4119   2.394       .  S
O2746      H2781   0.966       .  S
O2747     Zr4105   2.406       .  S
O2747     Zr2767   2.407       .  S
O2747      H2784   0.966       .  S
O2748     Zr4105   2.406       .  S
O2748     Zr2751   2.393       .  S
O2748     Zr2767   2.394       .  S
Zr2749     O2768   2.405       .  S
Zr2749     O2776   2.417       .  S
Zr2749     O2764   2.429       .  S
Zr2749     O4123   2.393       .  S
Zr2749     O4124   2.393       .  S
Zr2749     O2757   2.376       .  S
Zr2749     O4142   2.441       .  S
Zr2750     O2763   2.439       .  S
Zr2750     O2756   2.394       .  S
Zr2750     O4125   2.384   1_545  S
Zr2750     O4137   2.436   1_545  S
Zr2750     O2762   2.433       .  S
Zr2751     O2777   2.448       .  S
Zr2751     O4114   2.394       .  S
Zr2751     O2758   2.390       .  S
Zr2751     O2753   2.435       .  S
Zr2751     O4143   2.439       .  S
Zr2752     O2755   2.382       .  S
Zr2752     O2756   2.389       .  S
Zr2752     O2778   2.435       .  S
Zr2752     O2779   2.435       .  S
Zr2752     O2754   2.436       .  S
O2753      H2790   0.990       .  S
O2754      H2785   0.990       .  S
O2754      H2799   0.990       .  S
O2755     Zr4117   2.393   1_545  S
O2756     Zr4117   2.393   1_545  S
O2756      H2782   0.966       .  S
O2757     Zr4118   2.384       .  S
O2758     Zr2767   2.383       .  S
O2758      H2783   0.966       .  S
C2760      O4109   1.287   1_545  A
C2760      C4058   1.490       .  S
C2761      C4013   1.513       .  S
O2762      H2798   0.990       .  S
O2763      C4133   1.285       .  A
O2764      C2765   1.283       .  A
C2765      O4131   1.285       .  A
C2765      C4077   1.477       .  S
O2766     Zr2767   2.440       .  S
O2766      H2795   0.990       .  S
Zr2767     O2772   2.429       .  S
Zr2767     O2770   2.436       .  S
Zr2767     O2771   2.442       .  S
O2768      C2773   1.278       .  A
O2769     Zr4118   2.436       .  S
O2769      H2786   0.990       .  S
O2769      H2801   0.990       .  S
O2770      H2787   0.990       .  S
O2771      H2791   0.990       .  S
O2771      H2800   0.989       .  S
C2773      C4026   1.469       .  S
O2774     Zr4117   2.441   1_545  S
O2774      H2793   0.990       .  S
O2774      H2797   0.990       .  S
O2775     Zr4119   2.439       .  S
O2775      H2789   0.990       .  S
O2775      H2796   0.990       .  S
O2777      C2780   1.287   1_655  A
O2778      H2788   0.990       .  S
O2779      H2792   0.990       .  S
Zr2803     O2805   2.402       .  S
Zr2803     O2806   2.447       .  S
Zr2803     O2809   2.438       .  S
Zr2803     O2812   2.383   1_655  S
Zr2803     O2813   2.398       .  S
Zr2803     O2814   2.393       .  S
Zr2803     O2804   2.436       .  S
O2804      H2860   0.990       .  S
O2804      H2868   0.990       .  S
O2807     Zr2817   2.425       .  S
O2807      C2826   1.283       .  A
O2808     Zr2816   2.410       .  S
O2808      C2827   1.282       .  A
O2809      C2826   1.288       .  A
O2810     Zr2818   2.436       .  S
O2810      C2825   1.284       .  A
O2811     Zr2816   2.390       .  S
O2811     Zr2818   2.368       .  S
O2812     Zr2817   2.384   1_455  S
O2812      H2847   0.966   1_455  S
O2813     Zr2833   2.393       .  S
O2813      H2850   0.966       .  S
O2814     Zr2817   2.391       .  S
O2814     Zr2833   2.383       .  S
Zr2815     O2834   2.425       .  S
Zr2815     O2842   2.413       .  S
Zr2815     O2830   2.425       .  S
Zr2815     O2821   2.398       .  S
Zr2815     O2822   2.400       .  S
Zr2815     O2823   2.373       .  S
Zr2815     O2840   2.439       .  S
Zr2816     O2829   2.437       .  S
Zr2816     O2822   2.389       .  S
Zr2816     O2823   2.378       .  S
Zr2816     O2835   2.436       .  S
Zr2816     O2828   2.434       .  S
Zr2817     O2843   2.426   1_655  S
Zr2817     O2824   2.384       .  S
Zr2817     O2819   2.435       .  S
Zr2817     O2841   2.437       .  S
Zr2818     O2821   2.392       .  S
Zr2818     O2822   2.401       .  S
Zr2818     O2844   2.435       .  S
Zr2818     O2845   2.435       .  S
Zr2818     O2820   2.436       .  S
O2819      H2856   0.990       .  S
O2820      H2851   0.990       .  S
O2820      H2865   0.990       .  S
O2822      H2848   0.966       .  S
O2824     Zr2833   2.384       .  S
O2824      H2849   0.966       .  S
C2825      C4029   1.468       .  S
C2826      C3962   1.493       .  S
C2827      C3946   1.490       .  S
O2828      H2864   0.990       .  S
O2829      C2831   1.285       .  A
O2830      C2831   1.283       .  A
C2831      C3978   1.481       .  S
O2832     Zr2833   2.439       .  S
O2832      H2861   0.990       .  S
Zr2833     O2838   2.400       .  S
Zr2833     O2836   2.436       .  S
Zr2833     O2837   2.440       .  S
O2834      C2839   1.282       .  A
O2835      H2852   0.990       .  S
O2835      H2867   0.990       .  S
O2836      H2853   0.990       .  S
O2837      H2857   0.990       .  S
O2837      H2866   0.990       .  S
C2839      C4045   1.465       .  S
O2840      H2859   0.991       .  S
O2840      H2863   0.990       .  S
O2841      H2855   0.990       .  S
O2841      H2862   0.990       .  S
O2842      C2846   1.278       .  A
O2844      H2854   0.990       .  S
O2845      H2858   0.990       .  S
C2846      C3997   1.462       .  S
Zr2869     O2871   2.426       .  S
Zr2869     O2872   2.460       .  S
Zr2869     O2875   2.430       .  S
Zr2869     O2877   2.375       .  S
Zr2869     O2878   2.390       .  S
Zr2869     O4247   2.403   1_545  S
Zr2869     O4248   2.405   1_545  S
Zr2869     O4238   2.437   1_545  S
O2870     Zr4237   2.437       .  S
O2870      H2926   0.990       .  S
O2870      H2934   0.990       .  S
O2871      C2891   1.283       .  A
O2872      C2893   1.289       .  A
O2873     Zr2883   2.448       .  S
O2873      C4260   1.287       .  A
O2874     Zr2882   2.433       .  S
O2874      C2893   1.284       .  A
O2875      C2892   1.285       .  A
O2876     Zr2884   2.406       .  S
O2876      C2891   1.280       .  A
O2877     Zr2882   2.385       .  S
O2877     Zr2884   2.371       .  S
O2878     Zr4251   2.390       .  S
O2878     Zr2884   2.377       .  S
O2878      H2913   0.966       .  S
O2879     Zr4237   2.403       .  S
O2879     Zr4250   2.397       .  S
O2879     Zr2899   2.408       .  S
O2879      H2916   0.966       .  S
O2880     Zr4237   2.405       .  S
O2880     Zr2883   2.393       .  S
O2880     Zr2899   2.393       .  S
Zr2881     O2900   2.412       .  S
Zr2881     O2908   2.428       .  S
Zr2881     O2896   2.434       .  S
Zr2881     O4255   2.394       .  S
Zr2881     O4256   2.398       .  S
Zr2881     O2889   2.378       .  S
Zr2881     O2890   2.387       .  S
Zr2881     O4274   2.449       .  S
Zr2882     O2895   2.439       .  S
Zr2882     O4247   2.397   1_545  S
Zr2882     O2888   2.395       .  S
Zr2882     O4257   2.383   1_545  S
Zr2882     O4269   2.436   1_545  S
Zr2882     O2894   2.432       .  S
Zr2883     O2909   2.450       .  S
Zr2883     O4246   2.390       .  S
Zr2883     O4255   2.393       .  S
Zr2883     O2890   2.389       .  S
Zr2883     O2885   2.435       .  S
Zr2883     O4275   2.438       .  S
Zr2884     O2887   2.382       .  S
Zr2884     O2888   2.392       .  S
Zr2884     O2910   2.435       .  S
Zr2884     O2911   2.434       .  S
Zr2884     O2886   2.436       .  S
O2885      H2922   0.990       .  S
O2886      H2917   0.990       .  S
O2886      H2931   0.990       .  S
O2887     Zr4249   2.394   1_545  S
O2887     Zr4251   2.393       .  S
O2888     Zr4249   2.398   1_545  S
O2888      H2914   0.966       .  S
O2889     Zr4250   2.383       .  S
O2889     Zr2899   2.374       .  S
O2890     Zr2899   2.385       .  S
O2890      H2915   0.966       .  S
C2891      C3914   1.470       .  S
C2892      O4241   1.287       .  A
C2892      C4074   1.478       .  S
C2893      C3885   1.490       .  S
O2894      H2930   0.990       .  S
O2895      C4265   1.286       .  A
O2896      C2897   1.284       .  A
C2897      O4263   1.286       .  A
C2897      C4061   1.488       .  S
O2898     Zr2899   2.441       .  S
O2898      H2927   0.990       .  S
Zr2899     O2904   2.430       .  S
Zr2899     O2902   2.436       .  S
Zr2899     O2903   2.442       .  S
O2900      C2905   1.280       .  A
O2901     Zr4250   2.436       .  S
O2901      H2918   0.990       .  S
O2901      H2933   0.990       .  S
O2902      H2919   0.990       .  S
O2903      H2923   0.990       .  S
O2903      H2932   0.989       .  S
O2904      C2905   1.283       .  A
C2905      C3901   1.468       .  S
O2906     Zr4249   2.449   1_545  S
O2906      H2925   0.989       .  S
O2906      H2929   0.990       .  S
O2907     Zr4251   2.438       .  S
O2907      H2921   0.990       .  S
O2907      H2928   0.990       .  S
O2908      C2912   1.283       .  A
O2909      C2912   1.288       .  A
O2910      H2920   0.990       .  S
O2911      H2924   0.990       .  S
C2912      C5298   1.477       .  S
Zr2935     O2937   2.410       .  S
Zr2935     O2938   2.454       .  S
Zr2935     O2941   2.430       .  S
Zr2935     O2943   2.374       .  S
Zr2935     O2944   2.389       .  S
Zr2935     O2945   2.395       .  S
Zr2935     O2946   2.401       .  S
Zr2935     O2936   2.437       .  S
O2936      H2992   0.990       .  S
O2936      H3000   0.990       .  S
O2937      C2957   1.280       .  A
O2938      C2959   1.290       .  A
O2939     Zr2949   2.437       .  S
O2939      C2958   1.287       .  A
O2940     Zr2948   2.395       .  S
O2940      C2959   1.276       .  A
O2941      C2958   1.285       .  A
O2942     Zr2950   2.434       .  S
O2942      C2957   1.284       .  A
O2943     Zr2948   2.387       .  S
O2943     Zr2950   2.371       .  S
O2944     Zr2949   2.389       .  S
O2944     Zr2950   2.371       .  S
O2944      H2979   0.966       .  S
O2945     Zr2948   2.395       .  S
O2945     Zr2965   2.397       .  S
O2945      H2982   0.966       .  S
O2946     Zr2949   2.394       .  S
O2946     Zr2965   2.384       .  S
Zr2947     O2966   2.425       .  S
Zr2947     O2974   2.406       .  S
Zr2947     O2962   2.433       .  S
Zr2947     O2953   2.401       .  S
Zr2947     O2954   2.394       .  S
Zr2947     O2955   2.370       .  S
Zr2947     O2956   2.385       .  S
Zr2947     O2972   2.449       .  S
Zr2948     O2961   2.415       .  S
Zr2948     O2954   2.385       .  S
Zr2948     O2955   2.374       .  S
Zr2948     O2967   2.436       .  S
Zr2948     O2960   2.433       .  S
Zr2949     O2975   2.448       .  S
Zr2949     O2953   2.389       .  S
Zr2949     O2956   2.383       .  S
Zr2949     O2951   2.435       .  S
Zr2949     O2973   2.438       .  S
Zr2950     O2953   2.390       .  S
Zr2950     O2954   2.404       .  S
Zr2950     O2976   2.435       .  S
Zr2950     O2977   2.435       .  S
Zr2950     O2952   2.436       .  S
O2951      H2988   0.990       .  S
O2952      H2983   0.990       .  S
O2952      H2997   0.990       .  S
O2954      H2980   0.966       .  S
O2955     Zr2965   2.378       .  S
O2956     Zr2965   2.383       .  S
O2956      H2981   0.966       .  S
C2957      C3898   1.466       .  S
C2958      C3981   1.479       .  S
C2959      C3850   1.491       .  S
O2960      H2996   0.990       .  S
O2961      C2963   1.279       .  A
O2962      C2963   1.285       .  A
C2963      C3965   1.489       .  S
O2964     Zr2965   2.439       .  S
O2964      H2993   0.990       .  S
Zr2965     O2970   2.407       .  S
Zr2965     O2968   2.436       .  S
Zr2965     O2969   2.440       .  S
O2966      C2971   1.283       .  A
O2967      H2984   0.990       .  S
O2967      H2999   0.990       .  S
O2968      H2985   0.990       .  S
O2969      H2989   0.990       .  S
O2969      H2998   0.990       .  S
O2970      C2971   1.280       .  A
C2971      C3917   1.468       .  S
O2972      H2991   0.990       .  S
O2972      H2995   0.990       .  S
O2973      H2987   0.990       .  S
O2973      H2994   0.990       .  S
O2974      C2978   1.279       .  A
O2975      C2978   1.288       .  A
O2976      H2986   0.990       .  S
O2977      H2990   0.990       .  S
C2978      C3866   1.469       .  S
Zr3001     O3003   2.449       .  S
Zr3001     O3004   2.435       .  S
Zr3001     O3007   2.432       .  S
Zr3001     O3009   2.383       .  S
Zr3001     O3010   2.380   1_554  S
Zr3001     O3011   2.411       .  S
Zr3001     O3012   2.405   1_554  S
Zr3001     O3002   2.441       .  S
O3002      H3058   0.990       .  S
O3002      H3066   0.991       .  S
O3003      C3023   1.285   1_554  A
O3004      C3025   1.283       .  A
O3005     Zr3015   2.450       .  S
O3005      C3024   1.290       .  A
O3006     Zr3014   2.447       .  S
O3006      C3025   1.286       .  A
O3007      C3024   1.282   1_554  A
O3008     Zr3016   2.408       .  S
O3008      C3023   1.279       .  A
O3009     Zr3014   2.408       .  S
O3009     Zr3016   2.384   1_554  S
O3010     Zr3015   2.387       .  S
O3010     Zr3016   2.381       .  S
O3010      H3045   0.965       .  S
O3011     Zr3014   2.410       .  S
O3011      H3048   0.964       .  S
O3012     Zr3015   2.387       .  S
Zr3013     O3040   2.445       .  S
Zr3013     O4396   2.432   1_545  S
Zr3013     O3019   2.398       .  S
Zr3013     O3020   2.401       .  S
Zr3013     O3021   2.375   1_545  S
Zr3013     O3022   2.383       .  S
Zr3013     O3038   2.442       .  S
Zr3014     O4395   2.457   1_545  S
Zr3014     O3020   2.396   1_554  S
Zr3014     O3021   2.386   1_544  S
Zr3014     O4401   2.434   1_545  S
Zr3014     O3026   2.435       .  S
Zr3015     O3041   2.435       .  S
Zr3015     O3019   2.399       .  S
Zr3015     O3022   2.389       .  S
Zr3015     O3017   2.435       .  S
Zr3015     O3039   2.437       .  S
Zr3016     O3019   2.396       .  S
Zr3016     O3020   2.388       .  S
Zr3016     O3042   2.435       .  S
Zr3016     O3043   2.436       .  S
Zr3016     O3018   2.438       .  S
O3017      H3054   0.990       .  S
O3018      H3049   0.990       .  S
O3018      H3063   0.990       .  S
O3020      H3046   0.966       .  S
O3022      H3047   0.965       .  S
C3023      C3789   1.478       .  S
C3024      C3818   1.507       .  S
C3025      C4090   1.495       .  S
O3026      H3062   0.990       .  S
O3027     Zr4382   2.457       .  S
O3027      C3029   1.291   1_554  A
O3028     Zr4381   2.432       .  S
O3028      C3029   1.283       .  A
C3029      C3802   1.500       .  S
O3030     Zr3031   2.439       .  S
O3030      H3059   0.990       .  S
Zr3031     O4404   2.414   1_544  S
Zr3031     O4402   2.437   1_545  S
Zr3031     O3035   2.442   1_554  S
O3032      C3037   1.285       .  A
O3033     Zr4382   2.434       .  S
O3033      H3050   0.990       .  S
O3033      H3065   0.989       .  S
O3034     Zr4399   2.437       .  S
O3034      H3051   0.990       .  S
O3035      H3055   0.990   1_556  S
O3035      H3064   0.989       .  S
O3036     Zr4399   2.414   1_556  S
O3036      C3037   1.280       .  A
C3037      C3773   1.466       .  S
O3038      H3057   0.988       .  S
O3038      H3061   0.989       .  S
O3039      H3053   0.990       .  S
O3039      H3060   0.990       .  S
O3040      C3044   1.289       .  A
O3041      C3044   1.286       .  A
O3042      H3052   0.990       .  S
O3043      H3056   0.989       .  S
C3044      C3834   1.491       .  S
Zr3067     O3069   2.449       .  S
Zr3067     O3070   2.426       .  S
Zr3067     O3073   2.428   1_554  S
Zr3067     O3075   2.382       .  S
Zr3067     O3076   2.376   1_554  S
Zr3067     O3077   2.411       .  S
Zr3067     O3078   2.404   1_554  S
Zr3067     O3068   2.442       .  S
O3068      H3124   0.990       .  S
O3068      H3132   0.990       .  S
O3069      C3089   1.286   1_554  A
O3070      C3091   1.284       .  A
O3071     Zr3081   2.448       .  S
O3071      C3090   1.289       .  A
O3072     Zr3080   2.432       .  S
O3072      C3091   1.283       .  A
O3073      C3090   1.283       .  A
O3074     Zr3082   2.415       .  S
O3074      C3089   1.279       .  A
O3075     Zr3080   2.405       .  S
O3075     Zr3082   2.381   1_554  S
O3076     Zr3081   2.387       .  S
O3076     Zr3082   2.380       .  S
O3076      H3111   0.965       .  S
O3077     Zr3080   2.408       .  S
O3077      H3114   0.965       .  S
O3078     Zr3081   2.385       .  S
Zr3079     O3106   2.423       .  S
Zr3079     O3094   2.418       .  S
Zr3079     O3085   2.396       .  S
Zr3079     O3086   2.397       .  S
Zr3079     O3087   2.367       .  S
Zr3079     O3088   2.381       .  S
Zr3079     O3104   2.438       .  S
Zr3080     O3093   2.456       .  S
Zr3080     O3086   2.386   1_554  S
Zr3080     O3087   2.377   1_554  S
Zr3080     O3099   2.433       .  S
Zr3080     O3092   2.435       .  S
Zr3081     O3107   2.432       .  S
Zr3081     O3085   2.393       .  S
Zr3081     O3088   2.389       .  S
Zr3081     O3083   2.434       .  S
Zr3081     O3105   2.437       .  S
Zr3082     O3085   2.394       .  S
Zr3082     O3086   2.395       .  S
Zr3082     O3108   2.435       .  S
Zr3082     O3109   2.439       .  S
Zr3082     O3084   2.439       .  S
O3083      H3120   0.990       .  S
O3084      H3115   0.990       .  S
O3084      H3129   0.990       .  S
O3086      H3112   0.965       .  S
O3088      H3113   0.965       .  S
C3089      C3738   1.473       .  S
C3090      C3805   1.496       .  S
C3091      C3994   1.492       .  S
O3092      H3128   0.990       .  S
O3093      C3095   1.291   1_554  A
O3094      C3095   1.280       .  A
C3095      C3821   1.504       .  S
O3096     Zr3097   2.440       .  S
O3096      H3125   0.990       .  S
Zr3097     O3102   2.428   1_554  S
Zr3097     O3100   2.437       .  S
Zr3097     O3101   2.442   1_554  S
O3098      C3103   1.286       .  A
O3099      H3116   0.990       .  S
O3099      H3131   0.989       .  S
O3100      H3117   0.990       .  S
O3101      H3121   0.990   1_556  S
O3101      H3130   0.989       .  S
O3102      C3103   1.283       .  A
C3103      C3722   1.478       .  S
O3104      H3123   0.989       .  S
O3104      H3127   0.989       .  S
O3105      H3119   0.990       .  S
O3105      H3126   0.990       .  S
O3106      C3110   1.285       .  A
O3107      C3110   1.286       .  A
O3108      H3118   0.990       .  S
O3109      H3122   0.990       .  S
C3110      C3754   1.485       .  S
Zr3133     O3135   2.447       .  S
Zr3133     O3136   2.439       .  S
Zr3133     O3139   2.430   1_554  S
Zr3133     O3141   2.386       .  S
Zr3133     O3142   2.377   1_554  S
Zr3133     O3143   2.412       .  S
Zr3133     O3144   2.407   1_554  S
Zr3133     O3134   2.443       .  S
O3134      H3190   0.991       .  S
O3134      H3198   0.990       .  S
O3135      C3155   1.286   1_554  A
O3136      C3157   1.285       .  A
O3137     Zr3147   2.445       .  S
O3137      C3156   1.287       .  A
O3138     Zr3146   2.455       .  S
O3138      C3157   1.288       .  A
O3139      C3156   1.283       .  A
O3140     Zr3148   2.418       .  S
O3140      C3155   1.280       .  A
O3141     Zr3146   2.406       .  S
O3141     Zr3148   2.385   1_554  S
O3142     Zr3147   2.383       .  S
O3142     Zr3148   2.377       .  S
O3142      H3177   0.966       .  S
O3143     Zr3146   2.409       .  S
O3143     Zr3163   2.383       .  S
O3143      H3180   0.964       .  S
O3144     Zr3147   2.384       .  S
O3144     Zr3163   2.398   1_556  S
Zr3145     O4532   2.440   1_545  S
Zr3145     O3172   2.453       .  S
Zr3145     O4528   2.440   1_545  S
Zr3145     O3151   2.403       .  S
Zr3145     O3152   2.408       .  S
Zr3145     O3153   2.378   1_545  S
Zr3145     O3154   2.383       .  S
Zr3145     O3170   2.445       .  S
Zr3146     O4527   2.461   1_545  S
Zr3146     O3152   2.399   1_554  S
Zr3146     O3153   2.388   1_544  S
Zr3146     O4533   2.434   1_545  S
Zr3146     O3158   2.435       .  S
Zr3147     O3173   2.420       .  S
Zr3147     O3151   2.399       .  S
Zr3147     O3154   2.390       .  S
Zr3147     O3149   2.434       .  S
Zr3147     O3171   2.437       .  S
Zr3148     O3151   2.401       .  S
Zr3148     O3152   2.387       .  S
Zr3148     O3174   2.435       .  S
Zr3148     O3175   2.436       .  S
Zr3148     O3150   2.438       .  S
O3149      H3186   0.990       .  S
O3150      H3181   0.990       .  S
O3150      H3195   0.990       .  S
O3152      H3178   0.966       .  S
O3153     Zr3163   2.374   1_566  S
O3154     Zr3163   2.373   1_556  S
O3154      H3179   0.965       .  S
C3155      C3725   1.478       .  S
C3156      C3693   1.485       .  S
C3157      C3933   1.492       .  S
O3158      H3194   0.990       .  S
O3159     Zr4514   2.461       .  S
O3159      C3161   1.292   1_554  A
O3160     Zr4513   2.440       .  S
O3160      C3161   1.285       .  A
C3161      C3677   1.499       .  S
O3162     Zr3163   2.440       .  S
O3162      H3191   0.990       .  S
Zr3163     O4536   2.421   1_544  S
Zr3163     O4534   2.438   1_545  S
Zr3163     O3167   2.443   1_554  S
O3164     Zr4513   2.440       .  S
O3164      C3169   1.286       .  A
O3165     Zr4514   2.434       .  S
O3165      H3182   0.990       .  S
O3165      H3197   0.990       .  S
O3166     Zr4531   2.438       .  S
O3166      H3183   0.990       .  S
O3167      H3187   0.990       .  S
O3167      H3196   0.990       .  S
O3168     Zr4531   2.421   1_556  S
O3168      C3169   1.281       .  A
C3169      C3741   1.473       .  S
O3170      H3189   0.988       .  S
O3170      H3193   0.990       .  S
O3171      H3185   0.990       .  S
O3171      H3192   0.990       .  S
O3172      C3176   1.288       .  A
O3173      C3176   1.282       .  A
O3174      H3184   0.990       .  S
O3175      H3188   0.990       .  S
C3176      C3709   1.474       .  S
Zr3199     O3201   2.440       .  S
Zr3199     O3202   2.430       .  S
Zr3199     O3205   2.431   1_554  S
Zr3199     O3207   2.385       .  S
Zr3199     O3208   2.376   1_554  S
Zr3199     O3209   2.408       .  S
Zr3199     O3210   2.402   1_554  S
Zr3199     O3200   2.443       .  S
O3200      H3256   0.991       .  S
O3200      H3264   0.990       .  S
O3201      C3221   1.284   1_554  A
O3202      C3223   1.282       .  A
O3203     Zr3213   2.459       .  S
O3203      C3222   1.290       .  A
O3204     Zr3212   2.433       .  S
O3204      C3223   1.284       .  A
O3205      C3222   1.283       .  A
O3206     Zr3214   2.408       .  S
O3206      C3221   1.278       .  A
O3207     Zr3212   2.404       .  S
O3207     Zr3214   2.382   1_554  S
O3208     Zr3213   2.384       .  S
O3208     Zr3214   2.380       .  S
O3208      H3243   0.966       .  S
O3209     Zr3212   2.409       .  S
O3209     Zr3229   2.383       .  S
O3209      H3246   0.965       .  S
O3210     Zr3213   2.383       .  S
O3210     Zr3229   2.395   1_556  S
Zr3211     O3230   2.444       .  S
Zr3211     O3238   2.439       .  S
Zr3211     O3226   2.450       .  S
Zr3211     O3217   2.404       .  S
Zr3211     O3218   2.400       .  S
Zr3211     O3219   2.376   1_556  S
Zr3211     O3220   2.387       .  S
Zr3211     O3236   2.447       .  S
Zr3212     O3225   2.453       .  S
Zr3212     O3218   2.394   1_554  S
Zr3212     O3219   2.391       .  S
Zr3212     O3231   2.435       .  S
Zr3212     O3224   2.436       .  S
Zr3213     O3239   2.420       .  S
Zr3213     O3217   2.400       .  S
Zr3213     O3220   2.394       .  S
Zr3213     O3215   2.434       .  S
Zr3213     O3237   2.437       .  S
Zr3214     O3217   2.394       .  S
Zr3214     O3218   2.383       .  S
Zr3214     O3240   2.435       .  S
Zr3214     O3241   2.436       .  S
Zr3214     O3216   2.438       .  S
O3215      H3252   0.990       .  S
O3216      H3247   0.990       .  S
O3216      H3261   0.990       .  S
O3218      H3244   0.965       .  S
O3219     Zr3229   2.382       .  S
O3220     Zr3229   2.370   1_556  S
O3220      H3245   0.966       .  S
C3221      C3770   1.466       .  S
C3222      C3674   1.500       .  S
C3223      C3869   1.471       .  S
O3224      H3260   0.990       .  S
O3225      C3227   1.288   1_554  A
O3226      C3227   1.288       .  A
C3227      C3690   1.494       .  S
O3228     Zr3229   2.439       .  S
O3228      H3257   0.990       .  S
Zr3229     O3234   2.417   1_554  S
Zr3229     O3232   2.437       .  S
Zr3229     O3233   2.441   1_554  S
O3230      C3235   1.287       .  A
O3231      H3248   0.990       .  S
O3231      H3263   0.990       .  S
O3232      H3249   0.990       .  S
O3233      H3253   0.990   1_556  S
O3233      H3262   0.989       .  S
O3234      C3235   1.281       .  A
C3235      C3786   1.483       .  S
O3236      H3255   0.990       .  S
O3236      H3259   0.990       .  S
O3237      H3251   0.990       .  S
O3237      H3258   0.990       .  S
O3238      C3242   1.285       .  A
O3239      C3242   1.284       .  A
O3240      H3250   0.990       .  S
O3241      H3254   0.990       .  S
C3242      C3661   1.497       .  S
Zr3265     O3268   2.438       .  S
Zr3265     O3273   2.374       .  S
Zr3265     O3275   2.407       .  S
Zr3265     O3276   2.404       .  S
O3266      H3322   0.990       .  S
O3267      C3287   1.284       .  A
O3268      C3289   1.284       .  A
O3269      C3288   1.290       .  A
O3270     Zr3278   2.455       .  S
O3270      C3289   1.291       .  A
O3271      C3288   1.282       .  A
O3272      C3287   1.278       .  A
O3273     Zr3278   2.387       .  S
O3273     Zr3280   2.371       .  S
O3274      H3309   0.966       .  S
O3275     Zr3278   2.397       .  S
O3275     Zr3295   2.414       .  S
O3275      H3312   0.966       .  S
O3276     Zr3279   2.390       .  S
O3276     Zr3295   2.397       .  S
Zr3277     O3296   2.413       .  S
Zr3277     O3304   2.412       .  S
Zr3277     O3292   2.416       .  S
Zr3277     O3283   2.386       .  S
Zr3277     O3284   2.398       .  S
Zr3277     O3285   2.375       .  S
Zr3277     O3286   2.380       .  S
Zr3277     O3302   2.442       .  S
Zr3278     O3291   2.454       .  S
Zr3278     O3284   2.402       .  S
Zr3278     O3285   2.391       .  S
Zr3278     O3297   2.435       .  S
Zr3278     O3290   2.432       .  S
Zr3279     O3305   2.453       .  S
Zr3279     O3283   2.389       .  S
Zr3279     O3286   2.396       .  S
Zr3279     O3281   2.436       .  S
Zr3280     O3283   2.376       .  S
Zr3280     O3284   2.390       .  S
Zr3280     O3307   2.435       .  S
Zr3280     O3282   2.435       .  S
O3282      H3313   0.990   1_545  S
O3282      H3327   0.990       .  S
O3284      H3310   0.966       .  S
O3285     Zr3295   2.375       .  S
O3286     Zr3295   2.386       .  S
O3286      H3311   0.966       .  S
C3287      C4965   1.465   1_545  S
C3288      C3626   1.485       .  S
C3289      C4010   1.511       .  S
O3290      H3326   0.990       .  S
O3291      C3293   1.288       .  A
O3292      C3293   1.281       .  A
C3293      C3645   1.503       .  S
O3294     Zr3295   2.440       .  S
O3294      H3323   0.990       .  S
Zr3295     O3300   2.438       .  S
Zr3295     O3298   2.436       .  S
Zr3295     O3299   2.442       .  S
O3296      C3301   1.280       .  A
O3297      H3314   0.990       .  S
O3297      H3329   0.990       .  S
O3298      H3315   0.990       .  S
O3299      H3319   0.990       .  S
O3299      H3328   0.989       .  S
O3300      C3301   1.284       .  A
C3301      C3613   1.479       .  S
O3302      H3321   0.990       .  S
O3302      H3325   0.990       .  S
O3303      H3317   0.990       .  S
O3303      H3324   0.990       .  S
O3304      C3308   1.283       .  A
O3305      C3308   1.287       .  A
O3306      H3316   0.990   1_545  S
O3307      H3320   0.990       .  S
C3308      C3837   1.487       .  S
Zr3331     O3334   2.413       .  S
Zr3331     O3339   2.377       .  S
Zr3331     O3341   2.395       .  S
Zr3331     O3342   2.393       .  S
Zr3331     O3332   2.437       .  S
O3332      H3396   0.990       .  S
O3333      C3353   1.280       .  A
O3334      C3355   1.282       .  A
O3335      C3354   1.287       .  A
O3336     Zr3344   2.439       .  S
O3336      C3355   1.285       .  A
O3337      C3354   1.280       .  A
O3338      C3353   1.284       .  A
O3339     Zr3344   2.391       .  S
O3339     Zr3346   2.368       .  S
O3340      H3375   0.966       .  S
O3341     Zr3344   2.399       .  S
O3341     Zr3361   2.395       .  S
O3341      H3378   0.966       .  S
O3342     Zr3345   2.392       .  S
O3342     Zr3361   2.387       .  S
Zr3343     O3362   2.432       .  S
Zr3343     O3370   2.405       .  S
Zr3343     O3358   2.403       .  S
Zr3343     O3349   2.389       .  S
Zr3343     O3350   2.399       .  S
Zr3343     O3351   2.372       .  S
Zr3343     O3352   2.377       .  S
Zr3343     O3368   2.435       .  S
Zr3344     O3357   2.457       .  S
Zr3344     O3350   2.383       .  S
Zr3344     O3351   2.379       .  S
Zr3344     O3363   2.435       .  S
Zr3344     O3356   2.434       .  S
Zr3345     O3371   2.447       .  S
Zr3345     O3349   2.384       .  S
Zr3345     O3352   2.381       .  S
Zr3345     O3347   2.435       .  S
Zr3346     O3349   2.391       .  S
Zr3346     O3350   2.400       .  S
Zr3346     O3373   2.438       .  S
Zr3346     O3348   2.437       .  S
O3348      H3379   0.990       .  S
O3348      H3393   0.990       .  S
O3350      H3376   0.965       .  S
O3351     Zr3361   2.375       .  S
O3352     Zr3361   2.384       .  S
O3352      H3377   0.966       .  S
C3353      C3530   1.473       .  S
C3354      C3562   1.480       .  S
C3355      C3949   1.492       .  S
O3356      H3392   0.990       .  S
O3357      C3359   1.291       .  A
O3358      C3359   1.278       .  A
C3359      C3578   1.493       .  S
O3360     Zr3361   2.439       .  S
O3360      H3389   0.990       .  S
Zr3361     O3366   2.408       .  S
Zr3361     O3364   2.436       .  S
Zr3361     O3365   2.440       .  S
O3362      C3367   1.285       .  A
O3363      H3380   0.990       .  S
O3363      H3395   0.990       .  S
O3364      H3381   0.990       .  S
O3365      H3385   0.990       .  S
O3365      H3394   0.990       .  S
O3366      C3367   1.280       .  A
C3367      C3549   1.475       .  S
O3368      H3387   0.988       .  S
O3368      H3391   0.989       .  S
O3369      H3383   0.990       .  S
O3369      H3390   0.990       .  S
O3370      C3374   1.282       .  A
O3371      C3374   1.286       .  A
O3372      H3382   0.990       .  S
O3373      H3386   0.990       .  S
C3374      C3757   1.473       .  S
Zr3397     O3399   2.428       .  S
Zr3397     O3400   2.433       .  S
Zr3397     O3403   2.411       .  S
Zr3397     O3405   2.374       .  S
Zr3397     O3406   2.384       .  S
Zr3397     O3407   2.404       .  S
Zr3397     O3408   2.403       .  S
Zr3397     O3398   2.439       .  S
O3398      H3454   0.990       .  S
O3398      H3462   0.990       .  S
O3399      C3419   1.283       .  A
O3400      C3421   1.284       .  A
O3401     Zr3411   2.458       .  S
O3401      C3420   1.289       .  A
O3402     Zr3410   2.458       .  S
O3402      C3421   1.289       .  A
O3403      C3420   1.283       .  A
O3404     Zr3412   2.403       .  S
O3404      C3419   1.279       .  A
O3405     Zr3410   2.391       .  S
O3405     Zr3412   2.374       .  S
O3406     Zr3411   2.392       .  S
O3406     Zr3412   2.379       .  S
O3406      H3441   0.966       .  S
O3407     Zr3410   2.399       .  S
O3407     Zr3427   2.411       .  S
O3407      H3444   0.966       .  S
O3408     Zr3411   2.393       .  S
O3408     Zr3427   2.396       .  S
Zr3409     O3428   2.407       .  S
Zr3409     O3436   2.410       .  S
Zr3409     O3424   2.405       .  S
Zr3409     O3415   2.385       .  S
Zr3409     O3416   2.395       .  S
Zr3409     O3417   2.375       .  S
Zr3409     O3418   2.379       .  S
Zr3409     O3434   2.447       .  S
Zr3410     O3423   2.458       .  S
Zr3410     O3416   2.400       .  S
Zr3410     O3417   2.387       .  S
Zr3410     O3429   2.436       .  S
Zr3410     O3422   2.433       .  S
Zr3411     O3437   2.461       .  S
Zr3411     O3415   2.389       .  S
Zr3411     O3418   2.391       .  S
Zr3411     O3413   2.436       .  S
Zr3411     O3435   2.437       .  S
Zr3412     O3415   2.379       .  S
Zr3412     O3416   2.390       .  S
Zr3412     O3438   2.435       .  S
Zr3412     O3439   2.436       .  S
Zr3412     O3414   2.436       .  S
O3413      H3450   0.990       .  S
O3414      H3445   0.990   1_545  S
O3414      H3459   0.990       .  S
O3416      H3442   0.966       .  S
O3417     Zr3427   2.372       .  S
O3418     Zr3427   2.383       .  S
O3418      H3443   0.966       .  S
C3419      C4914   1.478   1_545  S
C3420      C3642   1.502       .  S
C3421      C3882   1.493       .  S
O3422      H3458   0.990       .  S
O3423      C3425   1.289       .  A
O3424      C3425   1.280       .  A
C3425      C3629   1.483       .  S
O3426     Zr3427   2.440       .  S
O3426      H3455   0.990       .  S
Zr3427     O3432   2.437       .  S
Zr3427     O3430   2.436       .  S
Zr3427     O3431   2.442       .  S
O3428      C3433   1.279       .  A
O3429      H3446   0.990       .  S
O3429      H3461   0.990       .  S
O3430      H3447   0.990       .  S
O3431      H3451   0.990       .  S
O3431      H3460   0.989       .  S
O3432      C3433   1.285       .  A
C3433      C3533   1.475       .  S
O3434      H3453   0.990       .  S
O3434      H3457   0.990       .  S
O3435      H3449   0.990       .  S
O3435      H3456   0.990       .  S
O3436      C3440   1.282       .  A
O3437      C3440   1.289       .  A
O3438      H3448   0.990   1_545  S
O3439      H3452   0.990       .  S
C3440      C3706   1.504       .  S
Zr3463     O3465   2.414       .  S
Zr3463     O3466   2.400       .  S
Zr3463     O3469   2.398       .  S
Zr3463     O3471   2.375       .  S
Zr3463     O3472   2.378       .  S
Zr3463     O3473   2.393       .  S
Zr3463     O3474   2.388       .  S
Zr3463     O3464   2.437       .  S
O3464      H3520   0.989       .  S
O3464      H3528   0.990       .  S
O3465      C3485   1.281       .  A
O3466      C3487   1.277       .  A
O3467     Zr3477   2.447       .  S
O3467      C3486   1.289       .  A
O3468     Zr3476   2.451       .  S
O3468      C3487   1.290       .  A
O3469      C3486   1.277       .  A
O3470     Zr3478   2.437       .  S
O3470      C3485   1.285       .  A
O3471     Zr3476   2.385       .  S
O3471     Zr3478   2.366       .  S
O3472     Zr3477   2.381       .  S
O3472     Zr3478   2.374       .  S
O3472      H3507   0.966       .  S
O3473     Zr3476   2.391       .  S
O3473     Zr3493   2.395       .  S
O3473      H3510   0.966       .  S
O3474     Zr3477   2.385       .  S
O3474     Zr3493   2.386       .  S
Zr3475     O3494   2.442       .  S
Zr3475     O3502   2.421       .  S
Zr3475     O3490   2.422       .  S
Zr3475     O3481   2.398       .  S
Zr3475     O3482   2.408       .  S
Zr3475     O3483   2.377       .  S
Zr3475     O3484   2.382       .  S
Zr3475     O3500   2.440       .  S
Zr3476     O3489   2.442       .  S
Zr3476     O3482   2.395       .  S
Zr3476     O3483   2.391       .  S
Zr3476     O3495   2.436       .  S
Zr3476     O3488   2.434       .  S
Zr3477     O3503   2.430       .  S
Zr3477     O3481   2.394       .  S
Zr3477     O3484   2.391       .  S
Zr3477     O3479   2.435       .  S
Zr3477     O3501   2.438       .  S
Zr3478     O3481   2.392       .  S
Zr3478     O3482   2.399       .  S
Zr3478     O3504   2.434       .  S
Zr3478     O3505   2.436       .  S
Zr3478     O3480   2.437       .  S
O3479      H3516   0.990       .  S
O3480      H3511   0.990       .  S
O3480      H3525   0.990       .  S
O3482      H3508   0.966       .  S
O3483     Zr3493   2.379       .  S
O3484     Zr3493   2.387       .  S
O3484      H3509   0.966       .  S
C3485      C3610   1.477       .  S
C3486      C3581   1.490       .  S
C3487      C3853   1.494       .  S
O3488      H3524   0.990       .  S
O3489      C3491   1.287       .  A
O3490      C3491   1.282       .  A
C3491      C3565   1.486       .  S
O3492     Zr3493   2.439       .  S
O3492      H3521   0.990       .  S
Zr3493     O3498   2.402       .  S
Zr3493     O3496   2.437       .  S
Zr3493     O3497   2.439       .  S
O3494      C3499   1.285       .  A
O3495      H3512   0.990       .  S
O3495      H3527   0.990       .  S
O3496      H3513   0.990       .  S
O3497      H3517   0.990       .  S
O3497      H3526   0.990       .  S
O3498      C3499   1.277       .  A
C3499      C3594   1.464       .  S
O3500      H3519   0.991       .  S
O3500      H3523   0.990       .  S
O3501      H3515   0.990       .  S
O3501      H3522   0.990       .  S
O3502      C3506   1.279       .  A
O3503      C3506   1.282       .  A
O3504      H3514   0.990       .  S
O3505      H3518   0.990       .  S
C3506      C3658   1.465       .  S
C3529      C3530   1.401       .  A
C3529      C3534   1.400       .  A
C3529      H3536   1.084       .  S
C3530      C3531   1.417       .  A
C3531      C3532   1.403       .  A
C3531      C3538   1.510       .  S
C3532      C3533   1.402       .  A
C3532      H3537   1.084       .  S
C3533      C3534   1.417       .  A
C3534      C3535   1.510       .  S
C3535      H3539   1.111       .  S
C3535      H3540   1.110       .  S
C3535      H3541   1.109       .  S
C3538      H3542   1.109       .  S
C3538      H3543   1.111       .  S
C3538      H3544   1.111       .  S
C3545      C3546   1.407       .  A
C3545      C3550   1.400       .  A
C3545      H3552   1.084       .  S
C3546      C4787   1.478       .  S
C3546      C3547   1.415       .  A
C3547      C3548   1.401       .  A
C3547      C4922   1.510       .  S
C3548      C3549   1.406       .  A
C3548      H3553   1.084       .  S
C3549      C3550   1.411       .  A
C3550      C3551   1.507       .  S
C3551      H3555   1.111       .  S
C3551      H3556   1.111       .  S
C3551      H3557   1.109       .  S
C3554      C4915   1.510   1_545  S
C3554      H3558   1.110       .  S
C3554      H3559   1.111       .  S
C3554      H4928   1.111       .  S
H3560      C4922   1.111       .  S
C3561      C3562   1.400       .  A
C3561      C3566   1.400       .  A
C3561      H3568   1.085       .  S
C3562      C3563   1.417       .  A
C3563      C3564   1.404       .  A
C3563      C3570   1.507       .  S
C3564      C3565   1.403       .  A
C3564      H3569   1.084       .  S
C3565      C3566   1.419       .  A
C3566      C3567   1.504       .  S
C3567      H3571   1.111       .  S
C3567      H3572   1.110       .  S
C3567      H3573   1.106       .  S
C3570      H3574   1.108       .  S
C3570      H3575   1.110       .  S
C3570      H3576   1.111       .  S
C3577      C3578   1.403       .  A
C3577      C3582   1.402       .  A
C3577      H3584   1.084       .  S
C3578      C3579   1.425       .  A
C3579      C3580   1.401       .  A
C3579      C3586   1.508       .  S
C3580      C3581   1.401       .  A
C3580      H3585   1.084       .  S
C3581      C3582   1.422       .  A
C3582      C3583   1.508       .  S
C3583      H3587   1.111       .  S
C3583      H3588   1.108       .  S
C3583      H3589   1.110       .  S
C3586      H3590   1.105       .  S
C3586      H3591   1.107       .  S
C3586      H3592   1.111       .  S
C3593      C3594   1.400       .  A
C3593      C3598   1.401       .  A
C3593      H3600   1.084       .  S
C3594      C3595   1.411       .  A
C3595      C3596   1.402       .  A
C3595      C3602   1.507       .  S
C3596      C3597   1.401       .  A
C3596      H3601   1.084       .  S
C3597      C4655   1.465       .  S
C3597      C3598   1.412       .  A
C3598      C3599   1.508       .  S
C3599      H3603   1.111       .  S
C3599      H3604   1.109       .  S
C3599      H3605   1.111       .  S
C3602      H3606   1.111       .  S
C3602      H3607   1.109       .  S
C3602      H3608   1.111       .  S
C3609      C3610   1.401       .  A
C3609      C3614   1.401       .  A
C3609      H3616   1.084       .  S
C3610      C3611   1.417       .  A
C3611      C3612   1.405       .  A
C3611      C3618   1.509       .  S
C3612      C3613   1.402       .  A
C3612      H3617   1.084       .  S
C3613      C3614   1.417       .  A
C3614      C3615   1.508       .  S
C3615      H3619   1.111       .  S
C3615      H3620   1.111       .  S
C3615      H3621   1.108       .  S
C3618      H3622   1.108       .  S
C3618      H3623   1.111       .  S
C3618      H3624   1.111       .  S
C3625      C3626   1.409       .  A
C3625      C3630   1.407       .  A
C3625      H3632   1.084       .  S
C3626      C3627   1.412       .  A
C3627      C3628   1.402       .  A
C3627      C3634   1.506       .  S
C3628      C3629   1.406       .  A
C3628      H3633   1.083       .  S
C3629      C3630   1.412       .  A
C3630      C3631   1.507       .  S
C3631      H3635   1.111       .  S
C3631      H3636   1.111       .  S
C3631      H3637   1.109       .  S
C3634      H3638   1.109       .  S
C3634      H3639   1.110       .  S
C3634      H3640   1.111       .  S
C3641      C3642   1.412       .  A
C3641      C3646   1.406       .  A
C3641      H3648   1.083       .  S
C3642      C3643   1.418       .  A
C3643      C3644   1.405       .  A
C3643      C3650   1.509       .  S
C3644      C3645   1.412       .  A
C3644      H3649   1.081       .  S
C3645      C3646   1.418       .  A
C3646      C3647   1.508       .  S
C3647      H3651   1.111       .  S
C3647      H3652   1.110       .  S
C3647      H3653   1.109       .  S
C3650      H3654   1.110       .  S
C3650      H3655   1.109       .  S
C3650      H3656   1.111       .  S
C3657      C3658   1.398       .  A
C3657      C3662   1.403       .  A
C3657      H3664   1.085       .  S
C3658      C3659   1.402       .  A
C3659      C3660   1.402       .  A
C3659      C3666   1.506       .  S
C3660      C3661   1.415       .  A
C3660      H3665   1.083       .  S
C3661      C3662   1.425       .  A
C3662      C3663   1.509       .  S
C3663      H3667   1.111       .  S
C3663      H3668   1.110       .  S
C3663      H3669   1.108       .  S
C3666      H3670   1.110       .  S
C3666      H3671   1.111       .  S
C3666      H3672   1.111       .  S
C3673      C3674   1.406       .  A
C3673      C3678   1.412       .  A
C3673      H3680   1.084       .  S
C3674      C3675   1.421       .  A
C3675      C3676   1.409       .  A
C3675      C3682   1.509   1_556  S
C3676      C3677   1.405       .  A
C3676      H3681   1.084   1_556  S
C3677      C3678   1.421       .  A
C3678      C3679   1.509       .  S
C3679      H3683   1.111       .  S
C3679      H3684   1.109       .  S
C3679      H3685   1.111       .  S
C3682      H3686   1.109   1_554  S
C3682      H3687   1.108       .  S
C3682      H3688   1.111       .  S
C3689      C3690   1.401       .  A
C3689      C3694   1.402       .  A
C3689      H3696   1.071       .  S
C3690      C3691   1.418       .  A
C3691      C3692   1.412       .  A
C3691      C3698   1.507       .  S
C3692      C3693   1.407       .  A
C3692      H3697   1.084       .  S
C3693      C3694   1.411       .  A
C3694      C3695   1.508       .  S
C3695      H3699   1.110       .  S
C3695      H3700   1.111       .  S
C3695      H3701   1.108       .  S
C3698      H3702   1.109   1_556  S
C3698      H3703   1.111       .  S
C3698      H3704   1.111       .  S
C3705      C3706   1.414       .  A
C3705      C3710   1.399       .  A
C3705      H3712   1.083       .  S
C3706      C3707   1.424       .  A
C3707      C3708   1.412       .  A
C3707      C3714   1.507       .  S
C3708      C3709   1.402       .  A
C3708      H3713   1.084       .  S
C3709      C3710   1.405       .  A
C3710      C3711   1.508       .  S
C3711      H3715   1.111       .  S
C3711      H3716   1.108       .  S
C3711      H3717   1.110       .  S
C3714      H3718   1.109       .  S
C3714      H3719   1.110       .  S
C3714      H3720   1.111       .  S
C3721      C3722   1.404       .  A
C3721      C3726   1.406       .  A
C3721      H3728   1.084       .  S
C3722      C3723   1.413       .  A
C3723      C3724   1.404       .  A
C3723      C3730   1.507       .  S
C3724      C3725   1.403       .  A
C3724      H3729   1.085       .  S
C3725      C3726   1.413       .  A
C3726      C3727   1.506       .  S
C3727      H3731   1.111   1_556  S
C3727      H3732   1.109       .  S
C3727      H3733   1.111   1_556  S
C3730      H3734   1.111       .  S
C3730      H3735   1.108       .  S
C3730      H3736   1.111       .  S
C3737      C3738   1.404       .  A
C3737      C3742   1.404       .  A
C3737      H3744   1.084       .  S
C3738      C3739   1.410   1_556  A
C3739      C3740   1.405       .  A
C3739      C3746   1.506       .  S
C3740      C3741   1.405   1_554  A
C3740      H3745   1.084       .  S
C3741      C3742   1.410       .  A
C3742      C3743   1.507       .  S
C3743      H3747   1.111       .  S
C3743      H3748   1.110       .  S
C3743      H3749   1.111       .  S
C3746      H3750   1.111       .  S
C3746      H3751   1.110       .  S
C3746      H3752   1.111       .  S
C3753      C3754   1.411       .  A
C3753      C3758   1.409       .  A
C3753      H3760   1.084       .  S
C3754      C3755   1.417       .  A
C3755      C3756   1.392       .  A
C3755      C3762   1.507       .  S
C3756      C3757   1.398       .  A
C3756      H3761   1.079       .  S
C3757      C3758   1.408       .  A
C3758      C3759   1.505       .  S
C3759      H3763   1.111       .  S
C3759      H3764   1.110       .  S
C3759      H3765   1.110       .  S
C3762      H3766   1.109       .  S
C3762      H3767   1.107       .  S
C3762      H3768   1.111       .  S
C3769      C3770   1.402       .  A
C3769      C3774   1.401       .  A
C3769      H3776   1.084       .  S
C3770      C3771   1.409       .  A
C3771      C3772   1.403       .  A
C3771      C3778   1.506   1_556  S
C3772      C3773   1.402       .  A
C3772      H3777   1.083       .  S
C3773      C3774   1.409       .  A
C3774      C3775   1.506       .  S
C3775      H3779   1.111       .  S
C3775      H3780   1.111       .  S
C3775      H3781   1.109       .  S
C3778      H3782   1.110   1_554  S
C3778      H3783   1.111       .  S
C3778      H3784   1.111       .  S
C3785      C3786   1.404       .  A
C3785      C3790   1.407       .  A
C3785      H3792   1.084       .  S
C3786      C3787   1.413       .  A
C3787      C3788   1.401       .  A
C3787      C3794   1.498       .  S
C3788      C3789   1.399       .  A
C3788      H3793   1.085       .  S
C3789      C3790   1.415       .  A
C3790      C3791   1.505       .  S
C3791      H3795   1.111       .  S
C3791      H3796   1.106   1_556  S
C3791      H3797   1.111       .  S
C3794      H3798   1.111       .  S
C3794      H3799   1.109       .  S
C3794      H3800   1.111       .  S
C3801      C3802   1.406       .  A
C3801      C3806   1.408       .  A
C3801      H3808   1.084   1_556  S
C3802      C3803   1.423       .  A
C3803      C3804   1.408       .  A
C3803      C3810   1.508       .  S
C3804      C3805   1.404       .  A
C3804      H3809   1.084       .  S
C3805      C3806   1.420       .  A
C3806      C3807   1.509   1_556  S
C3807      H3811   1.111       .  S
C3807      H3812   1.111   1_554  S
C3807      H3813   1.107       .  S
C3810      H3814   1.109       .  S
C3810      H3816   1.111       .  S
C3817      C3818   1.406       .  A
C3817      C3822   1.407       .  A
C3817      H3824   1.083       .  S
C3818      C3819   1.425   1_556  A
C3819      C3820   1.405       .  A
C3819      C3826   1.504       .  S
C3820      C3821   1.404   1_554  A
C3820      H3825   1.083       .  S
C3821      C3822   1.426       .  A
C3822      C3823   1.510       .  S
C3823      H3827   1.111       .  S
C3823      H3828   1.108       .  S
C3823      H3829   1.110       .  S
C3826      H3830   1.109       .  S
C3826      H3831   1.105       .  S
C3826      H3832   1.111       .  S
C3833      C3834   1.411       .  A
C3833      C3838   1.412       .  A
C3833      H3840   1.084       .  S
C3834      C3835   1.415       .  A
C3835      C3836   1.397       .  A
C3835      C3842   1.505       .  S
C3836      C3837   1.403       .  A
C3836      H3841   1.083       .  S
C3837      C3838   1.414       .  A
C3838      C3839   1.505       .  S
C3839      H3843   1.111       .  S
C3839      H3844   1.110       .  S
C3839      H3845   1.110       .  S
C3842      H3846   1.108       .  S
C3842      H3847   1.109       .  S
C3842      H3848   1.111       .  S
C3849      C3850   1.402       .  A
C3849      C3854   1.404       .  A
C3849      H3856   1.084       .  S
C3850      C3851   1.424       .  A
C3851      C3852   1.401       .  A
C3851      C3858   1.510       .  S
C3852      C3853   1.403       .  A
C3852      H3857   1.084       .  S
C3853      C3854   1.426       .  A
C3854      C3855   1.510       .  S
C3855      H3859   1.111       .  S
C3855      H3860   1.108       .  S
C3855      H3861   1.110       .  S
C3858      H3862   1.110       .  S
C3858      H3863   1.110       .  S
C3858      H3864   1.111       .  S
C3865      C3866   1.404       .  A
C3865      C3870   1.401       .  A
C3865      H3872   1.084       .  S
C3866      C3867   1.408       .  A
C3867      C3868   1.404       .  A
C3867      C3874   1.506       .  S
C3868      C3869   1.406       .  A
C3868      H3873   1.084       .  S
C3869      C3870   1.411       .  A
C3870      C3871   1.508       .  S
C3871      H3875   1.111       .  S
C3871      H3876   1.109       .  S
C3871      H3877   1.110       .  S
C3874      H3878   1.110       .  S
C3874      H3879   1.110       .  S
C3874      H3880   1.111       .  S
C3881      C3882   1.408       .  A
C3881      C3886   1.410       .  A
C3881      H3888   1.084       .  S
C3882      C3883   1.415       .  A
C3883      C3884   1.410       .  A
C3883      C3890   1.507       .  S
C3884      C3885   1.406       .  A
C3884      H3889   1.084       .  S
C3885      C3886   1.414       .  A
C3886      C5255   1.506       .  S
C3887      C5254   1.506       .  S
C3887      H3891   1.111       .  S
C3887      H3892   1.111       .  S
C3887      H3893   1.109       .  S
C3890      H3894   1.109       .  S
C3890      H3895   1.111       .  S
C3890      H3896   1.111       .  S
C3897      C3898   1.401       .  A
C3897      C3902   1.400       .  A
C3897      H3904   1.085       .  S
C3898      C3899   1.411       .  A
C3899      C3900   1.402       .  A
C3899      C3906   1.507       .  S
C3900      C3901   1.402       .  A
C3900      H3905   1.084       .  S
C3901      C3902   1.413       .  A
C3902      C3903   1.508       .  S
C3903      H3907   1.111       .  S
C3903      H3908   1.109       .  S
C3903      H3909   1.111       .  S
C3906      H3910   1.111       .  S
C3906      H3911   1.109       .  S
C3906      H3912   1.111       .  S
C3913      C3914   1.404       .  A
C3913      C3918   1.398       .  A
C3913      H3920   1.085       .  S
C3914      C3915   1.413       .  A
C3915      C3916   1.401       .  A
C3915      C3922   1.509       .  S
C3916      C3917   1.404       .  A
C3916      H3921   1.085       .  S
C3917      C3918   1.412       .  A
C3918      C3919   1.509       .  S
C3919      H3923   1.111       .  S
C3919      H3924   1.111       .  S
C3919      H3925   1.110       .  S
C3922      H3926   1.109       .  S
C3922      H3927   1.111       .  S
C3922      H3928   1.111       .  S
C3929      C5298   1.400       .  A
C3929      C3934   1.410       .  A
C3929      H3936   1.084       .  S
C3930      C4280   1.477       .  S
C3930      C5297   1.400   1_545  A
C3930      C3931   1.414       .  A
C3931      C3932   1.402       .  A
C3931      C3938   1.509       .  S
C3932      C3933   1.405       .  A
C3932      H3937   1.085       .  S
C3933      C5302   1.422   1_545  A
C3934      C5301   1.422       .  A
C3934      C3935   1.506       .  S
C3935      H3939   1.111       .  S
C3935      H3940   1.109       .  S
C3935      H3941   1.110       .  S
C3938      H3942   1.110       .  S
C3938      H3943   1.108       .  S
C3938      H3944   1.111       .  S
C3945      C3946   1.409       .  A
C3945      C3950   1.402       .  A
C3945      H3952   1.084       .  S
C3947      C3954   1.507       .  S
C3948      C3949   1.410       .  A
C3949      C3950   1.417       .  A
C3950      C3951   1.509       .  S
C3951      H3955   1.111       .  S
C3951      H3956   1.110       .  S
C3951      H3957   1.110       .  S
C3954      H3958   1.110       .  S
C3954      H3959   1.108       .  S
C3954      H3960   1.111       .  S
C3961      C3962   1.406       .  A
C3961      C3966   1.404       .  A
C3961      H3968   1.084       .  S
C3962      C3963   1.422       .  A
C3963      C3964   1.403       .  A
C3963      C3970   1.508       .  S
C3964      C3965   1.404       .  A
C3964      H3969   1.084       .  S
C3965      C3966   1.419       .  A
C3966      C3967   1.509       .  S
C3967      H3971   1.111       .  S
C3967      H3972   1.110       .  S
C3967      H3973   1.109       .  S
C3970      H3974   1.109       .  S
C3970      H3975   1.109       .  S
C3970      H3976   1.111       .  S
C3977      C3978   1.403       .  A
C3977      C3982   1.405       .  A
C3977      H3984   1.084       .  S
C3978      C3979   1.416       .  A
C3979      C3980   1.403       .  A
C3979      C3986   1.505       .  S
C3980      C3981   1.401       .  A
C3980      H3985   1.085       .  S
C3981      C3982   1.415       .  A
C3982      C3983   1.506       .  S
C3983      H3987   1.111       .  S
C3983      H3988   1.108       .  S
C3983      H3989   1.111       .  S
C3986      H3990   1.111       .  S
C3986      H3991   1.105       .  S
C3986      H3992   1.111       .  S
C3993      C3994   1.410       .  A
C3993      C3998   1.397       .  A
C3993      H4000   1.083       .  S
C3994      C3995   1.424       .  A
C3995      C3996   1.405       .  A
C3995      C4002   1.505       .  S
C3996      C3997   1.396       .  A
C3996      H4001   1.084       .  S
C3997      C3998   1.406       .  A
C3998      C3999   1.509       .  S
C3999      H4003   1.111       .  S
C3999      H4004   1.110       .  S
C3999      H4005   1.110       .  S
C4002      H4006   1.110       .  S
C4002      H4007   1.108       .  S
C4002      H4008   1.111       .  S
C4009      C4010   1.406       .  A
C4009      C4014   1.408       .  A
C4009      H4016   1.083       .  S
C4011      C4012   1.414       .  A
C4011      C4018   1.507       .  S
C4012      H4017   1.083       .  S
C4013      C4014   1.427       .  A
C4014      C4015   1.510       .  S
C4015      H4019   1.111       .  S
C4015      H4020   1.109       .  S
C4015      H4021   1.110       .  S
C4018      H4022   1.109       .  S
C4018      H4023   1.110       .  S
C4018      H4024   1.111       .  S
C4025      C4026   1.402       .  A
C4025      C4030   1.400       .  A
C4025      H4032   1.084       .  S
C4026      C4027   1.415       .  A
C4027      C4028   1.401       .  A
C4027      C4034   1.509       .  S
C4028      C4029   1.401       .  A
C4028      H4033   1.084       .  S
C4029      C4030   1.413       .  A
C4030      C4031   1.509       .  S
C4031      H4035   1.111       .  S
C4031      H4036   1.111       .  S
C4034      H4038   1.109       .  S
C4034      H4040   1.111       .  S
C4041      C4042   1.404       .  A
C4041      C4046   1.400       .  A
C4041      H4048   1.084       .  S
C4043      C4044   1.398       .  A
C4043      C4050   1.505       .  S
C4044      H4049   1.085       .  S
C4045      C4046   1.412       .  A
C4046      C4047   1.509       .  S
C4047      H4051   1.111       .  S
C4047      H4052   1.111       .  S
C4047      H4053   1.110       .  S
C4050      H4054   1.109       .  S
C4050      H4055   1.111       .  S
C4050      H4056   1.111       .  S
C4057      C4058   1.402       .  A
C4057      C4062   1.403       .  A
C4057      H4064   1.080       .  S
C4058      C5427   1.417   1_545  A
C4059      C5426   1.417       .  A
C4059      C4060   1.410       .  A
C4059      C4066   1.507       .  S
C4060      C4061   1.407       .  A
C4060      H4065   1.084       .  S
C4061      C5430   1.416       .  A
C4062      C5429   1.416       .  A
C4062      C4063   1.507       .  S
C4063      H4067   1.110       .  S
C4063      H4068   1.108       .  S
C4063      H4069   1.111       .  S
C4066      H4070   1.111       .  S
C4066      H4071   1.109       .  S
C4066      H4072   1.111       .  S
C4073      C4074   1.401       .  A
C4073      C4078   1.405       .  A
C4073      H4080   1.084       .  S
C4074      C5443   1.414   1_545  A
C4075      C5442   1.414       .  A
C4075      C4076   1.407       .  A
C4075      C4082   1.506       .  S
C4076      C4077   1.402       .  A
C4076      H4081   1.084       .  S
C4077      C5446   1.414       .  A
C4078      C5445   1.414       .  A
C4078      C4079   1.507       .  S
C4079      H4083   1.111       .  S
C4079      H4084   1.111       .  S
C4079      H4085   1.108       .  S
C4082      H4086   1.109       .  S
C4082      H4087   1.111       .  S
C4082      H4088   1.111       .  S
C4089      C4090   1.408       .  A
C4089      C4094   1.399       .  A
C4089      H4096   1.084       .  S
C4090      C5459   1.422   1_545  A
C4091      C5458   1.422       .  A
C4091      C4092   1.410       .  A
C4091      C4098   1.505       .  S
C4092      C4093   1.401       .  A
C4093      C5462   1.411       .  A
C4094      C5461   1.411       .  A
C4094      C4095   1.510       .  S
C4095      H4099   1.111       .  S
C4095      H4100   1.110       .  S
C4095      H4101   1.108       .  S
C4098      H4102   1.110       .  S
C4098      H4103   1.109       .  S
Zr4105     O4107   2.426       .  S
Zr4105     O4108   2.464       .  S
Zr4105     O4111   2.439       .  S
Zr4105     O4114   2.388       .  S
O4106      H4162   0.990   1_565  S
O4106      H4170   0.990       .  S
O4107      C4127   1.283   1_655  A
O4109     Zr4119   2.444   1_565  S
O4110     Zr4118   2.428       .  S
O4110      C4129   1.282       .  A
O4111      C4128   1.288       .  A
O4112     Zr4120   2.404       .  S
O4113     Zr4118   2.389       .  S
O4113     Zr4120   2.374       .  S
O4114      H4149   0.966       .  S
O4115     Zr4135   2.407       .  S
O4115      H4152   0.966       .  S
O4116     Zr4119   2.393   1_565  S
O4116     Zr4135   2.394       .  S
Zr4117     O4136   2.405       .  S
Zr4117     O4144   2.417       .  S
Zr4117     O4132   2.429   1_565  S
Zr4117     O4125   2.376       .  S
Zr4118     O4131   2.439       .  S
Zr4118     O4124   2.394       .  S
Zr4118     O4130   2.433       .  S
Zr4119     O4145   2.448       .  S
Zr4119     O4126   2.390   1_545  S
Zr4119     O4121   2.435   1_545  S
Zr4120     O4123   2.382       .  S
Zr4120     O4124   2.389       .  S
Zr4120     O4146   2.435       .  S
Zr4120     O4147   2.435       .  S
Zr4120     O4122   2.436       .  S
O4121      H4158   0.990       .  S
O4122      H4153   0.990       .  S
O4122      H4167   0.990       .  S
O4124      H4150   0.966       .  S
O4126     Zr4135   2.383       .  S
O4126      H4151   0.966       .  S
C4128      C5426   1.490       .  S
C4129      C5381   1.513       .  S
O4130      H4166   0.990       .  S
O4132      C4133   1.283       .  A
C4133      C5445   1.477       .  S
O4134     Zr4135   2.440       .  S
O4134      H4163   0.990       .  S
Zr4135     O4140   2.429       .  S
Zr4135     O4138   2.436       .  S
Zr4135     O4139   2.442       .  S
O4136      C4141   1.278       .  A
O4137      H4154   0.990       .  S
O4137      H4169   0.990       .  S
O4138      H4155   0.990       .  S
O4139      H4159   0.990       .  S
O4139      H4168   0.989       .  S
C4141      C5394   1.469       .  S
O4142      H4161   0.990       .  S
O4142      H4165   0.990       .  S
O4143      H4157   0.990       .  S
O4143      H4164   0.990       .  S
O4145      C4148   1.287   1_655  A
O4146      H4156   0.990       .  S
O4147      H4160   0.990       .  S
Zr4171     O4173   2.402       .  S
Zr4171     O4174   2.447       .  S
Zr4171     O4177   2.438       .  S
Zr4171     O4180   2.383   1_655  S
Zr4171     O4181   2.398       .  S
Zr4171     O4182   2.393       .  S
Zr4171     O4172   2.436       .  S
O4172      H4228   0.990       .  S
O4172      H4236   0.990       .  S
O4175     Zr4185   2.425       .  S
O4175      C4194   1.283       .  A
O4176     Zr4184   2.410       .  S
O4176      C4195   1.282       .  A
O4177      C4194   1.288       .  A
O4178     Zr4186   2.436       .  S
O4178      C4193   1.284       .  A
O4179     Zr4184   2.390       .  S
O4179     Zr4186   2.368       .  S
O4180     Zr4185   2.384   1_455  S
O4180      H4215   0.966   1_455  S
O4181     Zr4201   2.393       .  S
O4181      H4218   0.966       .  S
O4182     Zr4185   2.391       .  S
O4182     Zr4201   2.383       .  S
Zr4183     O4202   2.425       .  S
Zr4183     O4210   2.413       .  S
Zr4183     O4198   2.425       .  S
Zr4183     O4189   2.398       .  S
Zr4183     O4190   2.400       .  S
Zr4183     O4191   2.373       .  S
Zr4183     O4208   2.439       .  S
Zr4184     O4197   2.437       .  S
Zr4184     O4190   2.389       .  S
Zr4184     O4191   2.378       .  S
Zr4184     O4203   2.436       .  S
Zr4184     O4196   2.434       .  S
Zr4185     O4211   2.426   1_655  S
Zr4185     O4192   2.384       .  S
Zr4185     O4187   2.435       .  S
Zr4185     O4209   2.437       .  S
Zr4186     O4189   2.392       .  S
Zr4186     O4190   2.401       .  S
Zr4186     O4212   2.435       .  S
Zr4186     O4213   2.435       .  S
Zr4186     O4188   2.436       .  S
O4187      H4224   0.990       .  S
O4188      H4219   0.990       .  S
O4188      H4233   0.990       .  S
O4190      H4216   0.966       .  S
O4192     Zr4201   2.384       .  S
O4192      H4217   0.966       .  S
C4193      C5397   1.468       .  S
C4194      C5330   1.493       .  S
C4195      C5314   1.490       .  S
O4196      H4232   0.990       .  S
O4197      C4199   1.285       .  A
O4198      C4199   1.283       .  A
C4199      C5346   1.481       .  S
O4200     Zr4201   2.439       .  S
O4200      H4229   0.990       .  S
Zr4201     O4206   2.400       .  S
Zr4201     O4204   2.436       .  S
Zr4201     O4205   2.440       .  S
O4202      C4207   1.282       .  A
O4203      H4220   0.990       .  S
O4203      H4235   0.990       .  S
O4204      H4221   0.990       .  S
O4205      H4225   0.990       .  S
O4205      H4234   0.990       .  S
C4207      C5413   1.465       .  S
O4208      H4227   0.991       .  S
O4208      H4231   0.990       .  S
O4209      H4223   0.990       .  S
O4209      H4230   0.990       .  S
O4210      C4214   1.278       .  A
O4212      H4222   0.990       .  S
O4213      H4226   0.990       .  S
C4214      C5365   1.462       .  S
Zr4237     O4239   2.426       .  S
Zr4237     O4240   2.460       .  S
Zr4237     O4243   2.430       .  S
Zr4237     O4245   2.375       .  S
Zr4237     O4246   2.390       .  S
O4238      H4294   0.990   1_565  S
O4238      H4302   0.990       .  S
O4239      C4259   1.283       .  A
O4240      C4261   1.289       .  A
O4241     Zr4251   2.448       .  S
O4242     Zr4250   2.433       .  S
O4242      C4261   1.284       .  A
O4243      C4260   1.285       .  A
O4244     Zr4252   2.406       .  S
O4244      C4259   1.280       .  A
O4245     Zr4250   2.385       .  S
O4245     Zr4252   2.371       .  S
O4246     Zr4252   2.377       .  S
O4246      H4281   0.966       .  S
O4247     Zr4267   2.408       .  S
O4247      H4284   0.966       .  S
O4248     Zr4251   2.393   1_565  S
O4248     Zr4267   2.393       .  S
Zr4249     O4268   2.412       .  S
Zr4249     O4276   2.428       .  S
Zr4249     O4264   2.434       .  S
Zr4249     O4257   2.378       .  S
Zr4249     O4258   2.387       .  S
Zr4250     O4263   2.439       .  S
Zr4250     O4256   2.395       .  S
Zr4250     O4262   2.432       .  S
Zr4251     O4277   2.450       .  S
Zr4251     O4258   2.389   1_545  S
Zr4251     O4253   2.435   1_545  S
Zr4252     O4255   2.382       .  S
Zr4252     O4256   2.392       .  S
Zr4252     O4278   2.435       .  S
Zr4252     O4279   2.434       .  S
Zr4252     O4254   2.436       .  S
O4253      H4290   0.990       .  S
O4254      H4285   0.990       .  S
O4254      H4299   0.990       .  S
O4256      H4282   0.966       .  S
O4257     Zr4267   2.374       .  S
O4258     Zr4267   2.385       .  S
O4258      H4283   0.966       .  S
C4259      C5282   1.470       .  S
C4260      C5442   1.478       .  S
C4261      C5253   1.490       .  S
O4262      H4298   0.990       .  S
O4264      C4265   1.284   1_565  A
C4265      C5429   1.488       .  S
O4266     Zr4267   2.441       .  S
O4266      H4295   0.990       .  S
Zr4267     O4272   2.430       .  S
Zr4267     O4270   2.436       .  S
Zr4267     O4271   2.442       .  S
O4268      C4273   1.280       .  A
O4269      H4286   0.990       .  S
O4269      H4301   0.990       .  S
O4270      H4287   0.990       .  S
O4271      H4291   0.990       .  S
O4271      H4300   0.989       .  S
O4272      C4273   1.283       .  A
C4273      C5269   1.468       .  S
O4274      H4293   0.989       .  S
O4274      H4297   0.990       .  S
O4275      H4289   0.990       .  S
O4275      H4296   0.990       .  S
O4276      C4280   1.283   1_565  A
O4277      C4280   1.288       .  A
O4278      H4288   0.990       .  S
O4279      H4292   0.990       .  S
Zr4303     O4305   2.410       .  S
Zr4303     O4306   2.454       .  S
Zr4303     O4309   2.430       .  S
Zr4303     O4311   2.374       .  S
Zr4303     O4312   2.389       .  S
Zr4303     O4313   2.395       .  S
Zr4303     O4314   2.401       .  S
Zr4303     O4304   2.437       .  S
O4304      H4360   0.990       .  S
O4304      H4368   0.990       .  S
O4305      C4325   1.280       .  A
O4306      C4327   1.290       .  A
O4307     Zr4317   2.437       .  S
O4307      C4326   1.287       .  A
O4308     Zr4316   2.395       .  S
O4308      C4327   1.276       .  A
O4309      C4326   1.285       .  A
O4310     Zr4318   2.434       .  S
O4310      C4325   1.284       .  A
O4311     Zr4316   2.387       .  S
O4311     Zr4318   2.371       .  S
O4312     Zr4317   2.389       .  S
O4312     Zr4318   2.371       .  S
O4312      H4347   0.966       .  S
O4313     Zr4316   2.395       .  S
O4313     Zr4333   2.397       .  S
O4313      H4350   0.966       .  S
O4314     Zr4317   2.394       .  S
O4314     Zr4333   2.384       .  S
Zr4315     O4334   2.425       .  S
Zr4315     O4342   2.406       .  S
Zr4315     O4330   2.433       .  S
Zr4315     O4321   2.401       .  S
Zr4315     O4322   2.394       .  S
Zr4315     O4323   2.370       .  S
Zr4315     O4324   2.385       .  S
Zr4315     O4340   2.449       .  S
Zr4316     O4329   2.415       .  S
Zr4316     O4322   2.385       .  S
Zr4316     O4323   2.374       .  S
Zr4316     O4335   2.436       .  S
Zr4316     O4328   2.433       .  S
Zr4317     O4343   2.448       .  S
Zr4317     O4321   2.389       .  S
Zr4317     O4324   2.383       .  S
Zr4317     O4319   2.435       .  S
Zr4317     O4341   2.438       .  S
Zr4318     O4321   2.390       .  S
Zr4318     O4322   2.404       .  S
Zr4318     O4344   2.435       .  S
Zr4318     O4345   2.435       .  S
Zr4318     O4320   2.436       .  S
O4319      H4356   0.990       .  S
O4320      H4351   0.990       .  S
O4320      H4365   0.990       .  S
O4322      H4348   0.966       .  S
O4323     Zr4333   2.378       .  S
O4324     Zr4333   2.383       .  S
O4324      H4349   0.966       .  S
C4325      C5266   1.466       .  S
C4326      C5349   1.479       .  S
C4327      C5218   1.491       .  S
O4328      H4364   0.990       .  S
O4329      C4331   1.279       .  A
O4330      C4331   1.285       .  A
C4331      C5333   1.489       .  S
O4332     Zr4333   2.439       .  S
O4332      H4361   0.990       .  S
Zr4333     O4338   2.407       .  S
Zr4333     O4336   2.436       .  S
Zr4333     O4337   2.440       .  S
O4334      C4339   1.283       .  A
O4335      H4352   0.990       .  S
O4335      H4367   0.990       .  S
O4336      H4353   0.990       .  S
O4337      H4357   0.990       .  S
O4337      H4366   0.990       .  S
O4338      C4339   1.280       .  A
C4339      C5285   1.468       .  S
O4340      H4359   0.990       .  S
O4340      H4363   0.990       .  S
O4341      H4355   0.990       .  S
O4341      H4362   0.990       .  S
O4342      C4346   1.279       .  A
O4343      C4346   1.288       .  A
O4344      H4354   0.990       .  S
O4345      H4358   0.990       .  S
C4346      C5234   1.469       .  S
Zr4369     O4371   2.449       .  S
Zr4369     O4372   2.435       .  S
Zr4369     O4375   2.432       .  S
Zr4369     O4377   2.383       .  S
Zr4369     O4378   2.380   1_554  S
Zr4369     O4379   2.411       .  S
Zr4369     O4380   2.405   1_554  S
Zr4369     O4370   2.441       .  S
O4370      H4426   0.990       .  S
O4370      H4434   0.991       .  S
O4371      C4391   1.285   1_554  A
O4372      C4393   1.283       .  A
O4373     Zr4383   2.450       .  S
O4373      C4392   1.290       .  A
O4374     Zr4382   2.447       .  S
O4374      C4393   1.286       .  A
O4375      C4392   1.282   1_554  A
O4376     Zr4384   2.408       .  S
O4376      C4391   1.279       .  A
O4377     Zr4382   2.408       .  S
O4377     Zr4384   2.384   1_554  S
O4378     Zr4383   2.387       .  S
O4378     Zr4384   2.381       .  S
O4378      H4413   0.965       .  S
O4379     Zr4382   2.410       .  S
O4379      H4416   0.964       .  S
O4380     Zr4383   2.387       .  S
Zr4381     O4408   2.445       .  S
Zr4381     O4387   2.398       .  S
Zr4381     O4388   2.401       .  S
Zr4381     O4389   2.375       .  S
Zr4381     O4390   2.383       .  S
Zr4381     O4406   2.442       .  S
Zr4382     O4388   2.396   1_554  S
Zr4382     O4389   2.386   1_554  S
Zr4382     O4394   2.435       .  S
Zr4383     O4409   2.435       .  S
Zr4383     O4387   2.399       .  S
Zr4383     O4390   2.389       .  S
Zr4383     O4385   2.435       .  S
Zr4383     O4407   2.437       .  S
Zr4384     O4387   2.396       .  S
Zr4384     O4388   2.388       .  S
Zr4384     O4410   2.435       .  S
Zr4384     O4411   2.436       .  S
Zr4384     O4386   2.438       .  S
O4385      H4422   0.990       .  S
O4386      H4417   0.990       .  S
O4386      H4431   0.990       .  S
O4388      H4414   0.966       .  S
O4390      H4415   0.965       .  S
C4391      C5157   1.478       .  S
C4392      C5186   1.507       .  S
C4393      C5458   1.495       .  S
O4394      H4430   0.990       .  S
O4395      C4397   1.291   1_554  A
O4396      C4397   1.283       .  A
C4397      C5170   1.500       .  S
O4398     Zr4399   2.439       .  S
O4398      H4427   0.990       .  S
Zr4399     O4403   2.442   1_554  S
O4400      C4405   1.285       .  A
O4401      H4418   0.990       .  S
O4401      H4433   0.989       .  S
O4402      H4419   0.990       .  S
O4403      H4423   0.990   1_556  S
O4403      H4432   0.989       .  S
O4404      C4405   1.280       .  A
C4405      C5141   1.466       .  S
O4406      H4425   0.988       .  S
O4406      H4429   0.989       .  S
O4407      H4421   0.990       .  S
O4407      H4428   0.990       .  S
O4408      C4412   1.289       .  A
O4409      C4412   1.286       .  A
O4410      H4420   0.990       .  S
O4411      H4424   0.989       .  S
C4412      C5202   1.491       .  S
Zr4435     O4437   2.449       .  S
Zr4435     O4438   2.426       .  S
Zr4435     O4441   2.428   1_554  S
Zr4435     O4443   2.382       .  S
Zr4435     O4444   2.376   1_554  S
Zr4435     O4445   2.411       .  S
Zr4435     O4446   2.404   1_554  S
Zr4435     O4436   2.442       .  S
O4436      H4492   0.990       .  S
O4436      H4500   0.990       .  S
O4437      C4457   1.286   1_554  A
O4438      C4459   1.284       .  A
O4439     Zr4449   2.448       .  S
O4439      C4458   1.289       .  A
O4440     Zr4448   2.432       .  S
O4440      C4459   1.283       .  A
O4441      C4458   1.283       .  A
O4442     Zr4450   2.415       .  S
O4442      C4457   1.279       .  A
O4443     Zr4448   2.405       .  S
O4443     Zr4450   2.381   1_554  S
O4444     Zr4449   2.387       .  S
O4444     Zr4450   2.380       .  S
O4444      H4479   0.965       .  S
O4445     Zr4448   2.408       .  S
O4445      H4482   0.965       .  S
O4446     Zr4449   2.385       .  S
Zr4447     O4474   2.423       .  S
Zr4447     O4462   2.418       .  S
Zr4447     O4453   2.396       .  S
Zr4447     O4454   2.397       .  S
Zr4447     O4455   2.367       .  S
Zr4447     O4456   2.381       .  S
Zr4447     O4472   2.438       .  S
Zr4448     O4461   2.456       .  S
Zr4448     O4454   2.386   1_554  S
Zr4448     O4455   2.377   1_554  S
Zr4448     O4467   2.433       .  S
Zr4448     O4460   2.435       .  S
Zr4449     O4475   2.432       .  S
Zr4449     O4453   2.393       .  S
Zr4449     O4456   2.389       .  S
Zr4449     O4451   2.434       .  S
Zr4449     O4473   2.437       .  S
Zr4450     O4453   2.394       .  S
Zr4450     O4454   2.395       .  S
Zr4450     O4476   2.435       .  S
Zr4450     O4477   2.439       .  S
Zr4450     O4452   2.439       .  S
O4451      H4488   0.990       .  S
O4452      H4483   0.990       .  S
O4452      H4497   0.990       .  S
O4454      H4480   0.965       .  S
O4456      H4481   0.965       .  S
C4457      C5106   1.473       .  S
C4458      C5173   1.496       .  S
C4459      C5362   1.492       .  S
O4460      H4496   0.990       .  S
O4461      C4463   1.291   1_554  A
O4462      C4463   1.280       .  A
C4463      C5189   1.504       .  S
O4464     Zr4465   2.440       .  S
O4464      H4493   0.990       .  S
Zr4465     O4470   2.428   1_554  S
Zr4465     O4468   2.437       .  S
Zr4465     O4469   2.442   1_554  S
O4466      C4471   1.286       .  A
O4467      H4484   0.990       .  S
O4467      H4499   0.989       .  S
O4468      H4485   0.990       .  S
O4469      H4489   0.990   1_556  S
O4469      H4498   0.989       .  S
O4470      C4471   1.283       .  A
C4471      C5090   1.478       .  S
O4472      H4491   0.989       .  S
O4472      H4495   0.989       .  S
O4473      H4487   0.990       .  S
O4473      H4494   0.990       .  S
O4474      C4478   1.285       .  A
O4475      C4478   1.286       .  A
O4476      H4486   0.990       .  S
O4477      H4490   0.990       .  S
C4478      C5122   1.485       .  S
Zr4501     O4503   2.447       .  S
Zr4501     O4504   2.439       .  S
Zr4501     O4507   2.430   1_554  S
Zr4501     O4509   2.386       .  S
Zr4501     O4510   2.377   1_554  S
Zr4501     O4511   2.412       .  S
Zr4501     O4512   2.407   1_554  S
Zr4501     O4502   2.443       .  S
O4502      H4558   0.991       .  S
O4502      H4566   0.990       .  S
O4503      C4523   1.286   1_554  A
O4504      C4525   1.285       .  A
O4505     Zr4515   2.445       .  S
O4505      C4524   1.287       .  A
O4506     Zr4514   2.455       .  S
O4506      C4525   1.288       .  A
O4507      C4524   1.283       .  A
O4508     Zr4516   2.418       .  S
O4508      C4523   1.280       .  A
O4509     Zr4514   2.406       .  S
O4509     Zr4516   2.385   1_554  S
O4510     Zr4515   2.383       .  S
O4510     Zr4516   2.377       .  S
O4510      H4545   0.966       .  S
O4511     Zr4514   2.409       .  S
O4511     Zr4531   2.383       .  S
O4511      H4548   0.964       .  S
O4512     Zr4515   2.384       .  S
O4512     Zr4531   2.398   1_556  S
Zr4513     O4540   2.453       .  S
Zr4513     O4519   2.403       .  S
Zr4513     O4520   2.408       .  S
Zr4513     O4521   2.378       .  S
Zr4513     O4522   2.383       .  S
Zr4513     O4538   2.445       .  S
Zr4514     O4520   2.399   1_554  S
Zr4514     O4521   2.388   1_554  S
Zr4514     O4526   2.435       .  S
Zr4515     O4541   2.420       .  S
Zr4515     O4519   2.399       .  S
Zr4515     O4522   2.390       .  S
Zr4515     O4517   2.434       .  S
Zr4515     O4539   2.437       .  S
Zr4516     O4519   2.401       .  S
Zr4516     O4520   2.387       .  S
Zr4516     O4542   2.435       .  S
Zr4516     O4543   2.436       .  S
Zr4516     O4518   2.438       .  S
O4517      H4554   0.990       .  S
O4518      H4549   0.990       .  S
O4518      H4563   0.990       .  S
O4520      H4546   0.966       .  S
O4521     Zr4531   2.374   1_556  S
O4522     Zr4531   2.373   1_556  S
O4522      H4547   0.965       .  S
C4523      C5093   1.478       .  S
C4524      C5061   1.485       .  S
C4525      C5301   1.492       .  S
O4526      H4562   0.990       .  S
O4527      C4529   1.292   1_554  A
O4528      C4529   1.285       .  A
C4529      C5045   1.499       .  S
O4530     Zr4531   2.440       .  S
O4530      H4559   0.990       .  S
Zr4531     O4535   2.443   1_554  S
O4532      C4537   1.286       .  A
O4533      H4550   0.990       .  S
O4533      H4565   0.990       .  S
O4534      H4551   0.990       .  S
O4535      H4555   0.990       .  S
O4535      H4564   0.990       .  S
O4536      C4537   1.281       .  A
C4537      C5109   1.473       .  S
O4538      H4557   0.988       .  S
O4538      H4561   0.990       .  S
O4539      H4553   0.990       .  S
O4539      H4560   0.990       .  S
O4540      C4544   1.288       .  A
O4541      C4544   1.282       .  A
O4542      H4552   0.990       .  S
O4543      H4556   0.990       .  S
C4544      C5077   1.474       .  S
Zr4567     O4569   2.440       .  S
Zr4567     O4570   2.430       .  S
Zr4567     O4573   2.431   1_554  S
Zr4567     O4575   2.385       .  S
Zr4567     O4576   2.376   1_554  S
Zr4567     O4577   2.408       .  S
Zr4567     O4578   2.402   1_554  S
Zr4567     O4568   2.443       .  S
O4568      H4624   0.991       .  S
O4568      H4632   0.990       .  S
O4569      C4589   1.284   1_554  A
O4570      C4591   1.282       .  A
O4571     Zr4581   2.459       .  S
O4571      C4590   1.290       .  A
O4572     Zr4580   2.433       .  S
O4572      C4591   1.284       .  A
O4573      C4590   1.283       .  A
O4574     Zr4582   2.408       .  S
O4574      C4589   1.278       .  A
O4575     Zr4580   2.404       .  S
O4575     Zr4582   2.382   1_554  S
O4576     Zr4581   2.384       .  S
O4576     Zr4582   2.380       .  S
O4576      H4611   0.966       .  S
O4577     Zr4580   2.409       .  S
O4577     Zr4597   2.383       .  S
O4577      H4614   0.965       .  S
O4578     Zr4581   2.383       .  S
O4578     Zr4597   2.395   1_556  S
Zr4579     O4598   2.444       .  S
Zr4579     O4606   2.439       .  S
Zr4579     O4594   2.450       .  S
Zr4579     O4585   2.404       .  S
Zr4579     O4586   2.400       .  S
Zr4579     O4587   2.376   1_556  S
Zr4579     O4588   2.387       .  S
Zr4579     O4604   2.447       .  S
Zr4580     O4593   2.453       .  S
Zr4580     O4586   2.394   1_554  S
Zr4580     O4587   2.391       .  S
Zr4580     O4599   2.435       .  S
Zr4580     O4592   2.436       .  S
Zr4581     O4607   2.420       .  S
Zr4581     O4585   2.400       .  S
Zr4581     O4588   2.394       .  S
Zr4581     O4583   2.434       .  S
Zr4581     O4605   2.437       .  S
Zr4582     O4585   2.394       .  S
Zr4582     O4586   2.383       .  S
Zr4582     O4608   2.435       .  S
Zr4582     O4609   2.436       .  S
Zr4582     O4584   2.438       .  S
O4583      H4620   0.990       .  S
O4584      H4615   0.990       .  S
O4584      H4629   0.990       .  S
O4586      H4612   0.965       .  S
O4587     Zr4597   2.382       .  S
O4588     Zr4597   2.370   1_556  S
O4588      H4613   0.966       .  S
C4589      C5138   1.466       .  S
C4590      C5042   1.500       .  S
C4591      C5237   1.471       .  S
O4592      H4628   0.990       .  S
O4593      C4595   1.288   1_554  A
O4594      C4595   1.288       .  A
C4595      C5058   1.494       .  S
O4596     Zr4597   2.439       .  S
O4596      H4625   0.990       .  S
Zr4597     O4602   2.417   1_554  S
Zr4597     O4600   2.437       .  S
Zr4597     O4601   2.441   1_554  S
O4598      C4603   1.287       .  A
O4599      H4616   0.990       .  S
O4599      H4631   0.990       .  S
O4600      H4617   0.990       .  S
O4601      H4621   0.990   1_556  S
O4601      H4630   0.989       .  S
O4602      C4603   1.281       .  A
C4603      C5154   1.483       .  S
O4604      H4623   0.990       .  S
O4604      H4627   0.990       .  S
O4605      H4619   0.990       .  S
O4605      H4626   0.990       .  S
O4606      C4610   1.285       .  A
O4607      C4610   1.284       .  A
O4608      H4618   0.990       .  S
O4609      H4622   0.990       .  S
C4610      C5029   1.497       .  S
Zr4633     O4636   2.438       .  S
Zr4633     O4641   2.374       .  S
Zr4633     O4643   2.407       .  S
Zr4633     O4644   2.404       .  S
O4634      H4690   0.990       .  S
O4635      C4655   1.284       .  A
O4636      C4657   1.284       .  A
O4637      C4656   1.290       .  A
O4638     Zr4646   2.455       .  S
O4638      C4657   1.291       .  A
O4639      C4656   1.282       .  A
O4640      C4655   1.278       .  A
O4641     Zr4646   2.387       .  S
O4641     Zr4648   2.371       .  S
O4642      H4677   0.966       .  S
O4643     Zr4646   2.397       .  S
O4643     Zr4663   2.414       .  S
O4643      H4680   0.966       .  S
O4644     Zr4647   2.390       .  S
O4644     Zr4663   2.397       .  S
Zr4645     O4664   2.413       .  S
Zr4645     O4672   2.412       .  S
Zr4645     O4660   2.416       .  S
Zr4645     O4651   2.386       .  S
Zr4645     O4652   2.398       .  S
Zr4645     O4653   2.375       .  S
Zr4645     O4654   2.380       .  S
Zr4645     O4670   2.442       .  S
Zr4646     O4659   2.454       .  S
Zr4646     O4652   2.402       .  S
Zr4646     O4653   2.391       .  S
Zr4646     O4665   2.435       .  S
Zr4646     O4658   2.432       .  S
Zr4647     O4673   2.453       .  S
Zr4647     O4651   2.389       .  S
Zr4647     O4654   2.396       .  S
Zr4647     O4649   2.436       .  S
Zr4648     O4651   2.376       .  S
Zr4648     O4652   2.390       .  S
Zr4648     O4675   2.435       .  S
Zr4648     O4650   2.435       .  S
O4650      H4681   0.990       .  S
O4650      H4695   0.990       .  S
O4652      H4678   0.966       .  S
O4653     Zr4663   2.375       .  S
O4654     Zr4663   2.386       .  S
O4654      H4679   0.966       .  S
C4656      C4994   1.485       .  S
C4657      C5378   1.511       .  S
O4658      H4694   0.990       .  S
O4659      C4661   1.288       .  A
O4660      C4661   1.281       .  A
C4661      C5013   1.503       .  S
O4662     Zr4663   2.440       .  S
O4662      H4691   0.990       .  S
Zr4663     O4668   2.438       .  S
Zr4663     O4666   2.436       .  S
Zr4663     O4667   2.442       .  S
O4664      C4669   1.280       .  A
O4665      H4682   0.990       .  S
O4665      H4697   0.990       .  S
O4666      H4683   0.990       .  S
O4667      H4687   0.990       .  S
O4667      H4696   0.989       .  S
O4668      C4669   1.284       .  A
C4669      C4981   1.479       .  S
O4670      H4689   0.990       .  S
O4670      H4693   0.990       .  S
O4671      H4685   0.990       .  S
O4671      H4692   0.990       .  S
O4672      C4676   1.283       .  A
O4673      C4676   1.287       .  A
O4674      H4684   0.990       .  S
O4675      H4688   0.990       .  S
C4676      C5205   1.487       .  S
Zr4699     O4702   2.413       .  S
Zr4699     O4707   2.377       .  S
Zr4699     O4709   2.395       .  S
Zr4699     O4710   2.393       .  S
Zr4699     O4700   2.437       .  S
O4700      H4764   0.990       .  S
O4701      C4721   1.280       .  A
O4702      C4723   1.282       .  A
O4703      C4722   1.287       .  A
O4704     Zr4712   2.439       .  S
O4704      C4723   1.285       .  A
O4705      C4722   1.280       .  A
O4706      C4721   1.284       .  A
O4707     Zr4712   2.391       .  S
O4707     Zr4714   2.368       .  S
O4708      H4743   0.966       .  S
O4709     Zr4712   2.399       .  S
O4709     Zr4729   2.395       .  S
O4709      H4746   0.966       .  S
O4710     Zr4713   2.392       .  S
O4710     Zr4729   2.387       .  S
Zr4711     O4730   2.432       .  S
Zr4711     O4738   2.405       .  S
Zr4711     O4726   2.403       .  S
Zr4711     O4717   2.389       .  S
Zr4711     O4718   2.399       .  S
Zr4711     O4719   2.372       .  S
Zr4711     O4720   2.377       .  S
Zr4711     O4736   2.435       .  S
Zr4712     O4725   2.457       .  S
Zr4712     O4718   2.383       .  S
Zr4712     O4719   2.379       .  S
Zr4712     O4731   2.435       .  S
Zr4712     O4724   2.434       .  S
Zr4713     O4739   2.447       .  S
Zr4713     O4717   2.384       .  S
Zr4713     O4720   2.381       .  S
Zr4713     O4715   2.435       .  S
Zr4714     O4717   2.391       .  S
Zr4714     O4718   2.400       .  S
Zr4714     O4741   2.438       .  S
Zr4714     O4716   2.437       .  S
O4716      H4747   0.990       .  S
O4716      H4761   0.990       .  S
O4718      H4744   0.965       .  S
O4719     Zr4729   2.375       .  S
O4720     Zr4729   2.384       .  S
O4720      H4745   0.966       .  S
C4721      C4898   1.473       .  S
C4722      C4930   1.480       .  S
C4723      C5317   1.492       .  S
O4724      H4760   0.990       .  S
O4725      C4727   1.291       .  A
O4726      C4727   1.278       .  A
C4727      C4946   1.493       .  S
O4728     Zr4729   2.439       .  S
O4728      H4757   0.990       .  S
Zr4729     O4734   2.408       .  S
Zr4729     O4732   2.436       .  S
Zr4729     O4733   2.440       .  S
O4730      C4735   1.285       .  A
O4731      H4748   0.990       .  S
O4731      H4763   0.990       .  S
O4732      H4749   0.990       .  S
O4733      H4753   0.990       .  S
O4733      H4762   0.990       .  S
O4734      C4735   1.280       .  A
C4735      C4917   1.475       .  S
O4736      H4755   0.988       .  S
O4736      H4759   0.989       .  S
O4737      H4751   0.990       .  S
O4737      H4758   0.990       .  S
O4738      C4742   1.282       .  A
O4739      C4742   1.286       .  A
O4740      H4750   0.990       .  S
O4741      H4754   0.990       .  S
C4742      C5125   1.473       .  S
Zr4765     O4767   2.428       .  S
Zr4765     O4768   2.433       .  S
Zr4765     O4771   2.411       .  S
Zr4765     O4773   2.374       .  S
Zr4765     O4774   2.384       .  S
Zr4765     O4775   2.404       .  S
Zr4765     O4776   2.403       .  S
Zr4765     O4766   2.439       .  S
O4766      H4822   0.990       .  S
O4766      H4830   0.990       .  S
O4767      C4787   1.283       .  A
O4768      C4789   1.284       .  A
O4769     Zr4779   2.458       .  S
O4769      C4788   1.289       .  A
O4770     Zr4778   2.458       .  S
O4770      C4789   1.289       .  A
O4771      C4788   1.283       .  A
O4772     Zr4780   2.403       .  S
O4772      C4787   1.279       .  A
O4773     Zr4778   2.391       .  S
O4773     Zr4780   2.374       .  S
O4774     Zr4779   2.392       .  S
O4774     Zr4780   2.379       .  S
O4774      H4809   0.966       .  S
O4775     Zr4778   2.399       .  S
O4775     Zr4795   2.411       .  S
O4775      H4812   0.966       .  S
O4776     Zr4779   2.393       .  S
O4776     Zr4795   2.396       .  S
Zr4777     O4796   2.407       .  S
Zr4777     O4804   2.410       .  S
Zr4777     O4792   2.405       .  S
Zr4777     O4783   2.385       .  S
Zr4777     O4784   2.395       .  S
Zr4777     O4785   2.375       .  S
Zr4777     O4786   2.379       .  S
Zr4777     O4802   2.447       .  S
Zr4778     O4791   2.458       .  S
Zr4778     O4784   2.400       .  S
Zr4778     O4785   2.387       .  S
Zr4778     O4797   2.436       .  S
Zr4778     O4790   2.433       .  S
Zr4779     O4805   2.461       .  S
Zr4779     O4783   2.389       .  S
Zr4779     O4786   2.391       .  S
Zr4779     O4781   2.436       .  S
Zr4779     O4803   2.437       .  S
Zr4780     O4783   2.379       .  S
Zr4780     O4784   2.390       .  S
Zr4780     O4806   2.435       .  S
Zr4780     O4807   2.436       .  S
Zr4780     O4782   2.436       .  S
O4781      H4818   0.990       .  S
O4782      H4813   0.990       .  S
O4782      H4827   0.990       .  S
O4784      H4810   0.966       .  S
O4785     Zr4795   2.372       .  S
O4786     Zr4795   2.383       .  S
O4786      H4811   0.966       .  S
C4788      C5010   1.502       .  S
C4789      C5250   1.493       .  S
O4790      H4826   0.990       .  S
O4791      C4793   1.289       .  A
O4792      C4793   1.280       .  A
C4793      C4997   1.483       .  S
O4794     Zr4795   2.440       .  S
O4794      H4823   0.990       .  S
Zr4795     O4800   2.437       .  S
Zr4795     O4798   2.436       .  S
Zr4795     O4799   2.442       .  S
O4796      C4801   1.279       .  A
O4797      H4814   0.990       .  S
O4797      H4829   0.990       .  S
O4798      H4815   0.990       .  S
O4799      H4819   0.990       .  S
O4799      H4828   0.989       .  S
O4800      C4801   1.285       .  A
C4801      C4901   1.475       .  S
O4802      H4821   0.990       .  S
O4802      H4825   0.990       .  S
O4803      H4817   0.990       .  S
O4803      H4824   0.990       .  S
O4804      C4808   1.282       .  A
O4805      C4808   1.289       .  A
O4806      H4816   0.990       .  S
O4807      H4820   0.990       .  S
C4808      C5074   1.504       .  S
Zr4831     O4833   2.414       .  S
Zr4831     O4834   2.400       .  S
Zr4831     O4837   2.398       .  S
Zr4831     O4839   2.375       .  S
Zr4831     O4840   2.378       .  S
Zr4831     O4841   2.393       .  S
Zr4831     O4842   2.388       .  S
Zr4831     O4832   2.437       .  S
O4832      H4888   0.989       .  S
O4832      H4896   0.990       .  S
O4833      C4853   1.281       .  A
O4834      C4855   1.277       .  A
O4835     Zr4845   2.447       .  S
O4835      C4854   1.289       .  A
O4836     Zr4844   2.451       .  S
O4836      C4855   1.290       .  A
O4837      C4854   1.277       .  A
O4838     Zr4846   2.437       .  S
O4838      C4853   1.285       .  A
O4839     Zr4844   2.385       .  S
O4839     Zr4846   2.366       .  S
O4840     Zr4845   2.381       .  S
O4840     Zr4846   2.374       .  S
O4840      H4875   0.966       .  S
O4841     Zr4844   2.391       .  S
O4841     Zr4861   2.395       .  S
O4841      H4878   0.966       .  S
O4842     Zr4845   2.385       .  S
O4842     Zr4861   2.386       .  S
Zr4843     O4862   2.442       .  S
Zr4843     O4870   2.421       .  S
Zr4843     O4858   2.422       .  S
Zr4843     O4849   2.398       .  S
Zr4843     O4850   2.408       .  S
Zr4843     O4851   2.377       .  S
Zr4843     O4852   2.382       .  S
Zr4843     O4868   2.440       .  S
Zr4844     O4857   2.442       .  S
Zr4844     O4850   2.395       .  S
Zr4844     O4851   2.391       .  S
Zr4844     O4863   2.436       .  S
Zr4844     O4856   2.434       .  S
Zr4845     O4871   2.430       .  S
Zr4845     O4849   2.394       .  S
Zr4845     O4852   2.391       .  S
Zr4845     O4847   2.435       .  S
Zr4845     O4869   2.438       .  S
Zr4846     O4849   2.392       .  S
Zr4846     O4850   2.399       .  S
Zr4846     O4872   2.434       .  S
Zr4846     O4873   2.436       .  S
Zr4846     O4848   2.437       .  S
O4847      H4884   0.990       .  S
O4848      H4879   0.990       .  S
O4848      H4893   0.990       .  S
O4850      H4876   0.966       .  S
O4851     Zr4861   2.379       .  S
O4852     Zr4861   2.387       .  S
O4852      H4877   0.966       .  S
C4853      C4978   1.477       .  S
C4854      C4949   1.490       .  S
C4855      C5221   1.494       .  S
O4856      H4892   0.990       .  S
O4857      C4859   1.287       .  A
O4858      C4859   1.282       .  A
C4859      C4933   1.486       .  S
O4860     Zr4861   2.439       .  S
O4860      H4889   0.990       .  S
Zr4861     O4866   2.402       .  S
Zr4861     O4864   2.437       .  S
Zr4861     O4865   2.439       .  S
O4862      C4867   1.285       .  A
O4863      H4880   0.990       .  S
O4863      H4895   0.990       .  S
O4864      H4881   0.990       .  S
O4865      H4885   0.990       .  S
O4865      H4894   0.990       .  S
O4866      C4867   1.277       .  A
C4867      C4962   1.464       .  S
O4868      H4887   0.991       .  S
O4868      H4891   0.990       .  S
O4869      H4883   0.990       .  S
O4869      H4890   0.990       .  S
O4870      C4874   1.279       .  A
O4871      C4874   1.282       .  A
O4872      H4882   0.990       .  S
O4873      H4886   0.990       .  S
C4874      C5026   1.465       .  S
C4897      C4898   1.401       .  A
C4897      C4902   1.400       .  A
C4897      H4904   1.084       .  S
C4898      C4899   1.417       .  A
C4899      C4900   1.403       .  A
C4899      C4906   1.510       .  S
C4900      C4901   1.402       .  A
C4900      H4905   1.084       .  S
C4901      C4902   1.417       .  A
C4902      C4903   1.510       .  S
C4903      H4907   1.111       .  S
C4903      H4908   1.110       .  S
C4903      H4909   1.109       .  S
C4906      H4910   1.109       .  S
C4906      H4911   1.111       .  S
C4906      H4912   1.111       .  S
C4913      C4914   1.407       .  A
C4913      C4918   1.400       .  A
C4913      H4920   1.084       .  S
C4914      C4915   1.415       .  A
C4915      C4916   1.401       .  A
C4916      C4917   1.406       .  A
C4916      H4921   1.084       .  S
C4917      C4918   1.411       .  A
C4918      C4919   1.507       .  S
C4919      H4923   1.111       .  S
C4919      H4924   1.111       .  S
C4919      H4925   1.109       .  S
C4922      H4926   1.110       .  S
C4922      H4927   1.111       .  S
C4929      C4930   1.400       .  A
C4929      C4934   1.400       .  A
C4929      H4936   1.085       .  S
C4930      C4931   1.417       .  A
C4931      C4932   1.404       .  A
C4931      C4938   1.507       .  S
C4932      C4933   1.403       .  A
C4932      H4937   1.084       .  S
C4933      C4934   1.419       .  A
C4934      C4935   1.504       .  S
C4935      H4939   1.111       .  S
C4935      H4940   1.110       .  S
C4935      H4941   1.106       .  S
C4938      H4942   1.108       .  S
C4938      H4943   1.110       .  S
C4938      H4944   1.111       .  S
C4945      C4946   1.403       .  A
C4945      C4950   1.402       .  A
C4945      H4952   1.084       .  S
C4946      C4947   1.425       .  A
C4947      C4948   1.401       .  A
C4947      C4954   1.508       .  S
C4948      C4949   1.401       .  A
C4948      H4953   1.084       .  S
C4949      C4950   1.422       .  A
C4950      C4951   1.508       .  S
C4951      H4955   1.111       .  S
C4951      H4956   1.108       .  S
C4951      H4957   1.110       .  S
C4954      H4958   1.105       .  S
C4954      H4959   1.107       .  S
C4954      H4960   1.111       .  S
C4961      C4962   1.400       .  A
C4961      C4966   1.401       .  A
C4961      H4968   1.084       .  S
C4962      C4963   1.411       .  A
C4963      C4964   1.402       .  A
C4963      C4970   1.507       .  S
C4964      C4965   1.401       .  A
C4964      H4969   1.084       .  S
C4965      C4966   1.412       .  A
C4966      C4967   1.508       .  S
C4967      H4971   1.111       .  S
C4967      H4972   1.109       .  S
C4967      H4973   1.111       .  S
C4970      H4974   1.111       .  S
C4970      H4975   1.109       .  S
C4970      H4976   1.111       .  S
C4977      C4978   1.401       .  A
C4977      C4982   1.401       .  A
C4977      H4984   1.084       .  S
C4978      C4979   1.417       .  A
C4979      C4980   1.405       .  A
C4979      C4986   1.509       .  S
C4980      C4981   1.402       .  A
C4980      H4985   1.084       .  S
C4981      C4982   1.417       .  A
C4982      C4983   1.508       .  S
C4983      H4987   1.111       .  S
C4983      H4988   1.111       .  S
C4983      H4989   1.108       .  S
C4986      H4990   1.108       .  S
C4986      H4991   1.111       .  S
C4986      H4992   1.111       .  S
C4993      C4994   1.409       .  A
C4993      C4998   1.407       .  A
C4993      H5000   1.084       .  S
C4994      C4995   1.412       .  A
C4995      C4996   1.402       .  A
C4995      C5002   1.506       .  S
C4996      C4997   1.406       .  A
C4996      H5001   1.083       .  S
C4997      C4998   1.412       .  A
C4998      C4999   1.507       .  S
C4999      H5003   1.111       .  S
C4999      H5004   1.111       .  S
C4999      H5005   1.109       .  S
C5002      H5006   1.109       .  S
C5002      H5007   1.110       .  S
C5002      H5008   1.111       .  S
C5009      C5010   1.412       .  A
C5009      C5014   1.406       .  A
C5009      H5016   1.083       .  S
C5010      C5011   1.418       .  A
C5011      C5012   1.405       .  A
C5011      C5018   1.509       .  S
C5012      C5013   1.412       .  A
C5012      H5017   1.081       .  S
C5013      C5014   1.418       .  A
C5014      C5015   1.508       .  S
C5015      H5019   1.111       .  S
C5015      H5020   1.110       .  S
C5015      H5021   1.109       .  S
C5018      H5022   1.110       .  S
C5018      H5023   1.109       .  S
C5018      H5024   1.111       .  S
C5025      C5026   1.398       .  A
C5025      C5030   1.403       .  A
C5025      H5032   1.085       .  S
C5026      C5027   1.402       .  A
C5027      C5028   1.402       .  A
C5027      C5034   1.506       .  S
C5028      C5029   1.415       .  A
C5028      H5033   1.083       .  S
C5029      C5030   1.425       .  A
C5030      C5031   1.509       .  S
C5031      H5035   1.111       .  S
C5031      H5036   1.110       .  S
C5031      H5037   1.108       .  S
C5034      H5038   1.110       .  S
C5034      H5039   1.111       .  S
C5034      H5040   1.111       .  S
C5041      C5042   1.406       .  A
C5041      C5046   1.412       .  A
C5041      H5048   1.084       .  S
C5042      C5043   1.421       .  A
C5043      C5044   1.409       .  A
C5043      C5050   1.509   1_556  S
C5044      C5045   1.405       .  A
C5044      H5049   1.084   1_556  S
C5045      C5046   1.421       .  A
C5046      C5047   1.509       .  S
C5047      H5051   1.111       .  S
C5047      H5052   1.109       .  S
C5047      H5053   1.111       .  S
C5050      H5054   1.109   1_554  S
C5050      H5055   1.108       .  S
C5050      H5056   1.111       .  S
C5057      C5058   1.401       .  A
C5057      C5062   1.402       .  A
C5057      H5064   1.071       .  S
C5058      C5059   1.418       .  A
C5059      C5060   1.412       .  A
C5059      C5066   1.507       .  S
C5060      C5061   1.407       .  A
C5060      H5065   1.084       .  S
C5061      C5062   1.411       .  A
C5062      C5063   1.508       .  S
C5063      H5067   1.110       .  S
C5063      H5068   1.111       .  S
C5063      H5069   1.108       .  S
C5066      H5070   1.109   1_556  S
C5066      H5071   1.111       .  S
C5066      H5072   1.111       .  S
C5073      C5074   1.414       .  A
C5073      C5078   1.399       .  A
C5073      H5080   1.083       .  S
C5074      C5075   1.424       .  A
C5075      C5076   1.412       .  A
C5075      C5082   1.507       .  S
C5076      C5077   1.402       .  A
C5076      H5081   1.084       .  S
C5077      C5078   1.405       .  A
C5078      C5079   1.508       .  S
C5079      H5083   1.111       .  S
C5079      H5084   1.108       .  S
C5079      H5085   1.110       .  S
C5082      H5086   1.109       .  S
C5082      H5087   1.110       .  S
C5082      H5088   1.111       .  S
C5089      C5090   1.404       .  A
C5089      C5094   1.406       .  A
C5089      H5096   1.084       .  S
C5090      C5091   1.413       .  A
C5091      C5092   1.404       .  A
C5091      C5098   1.507       .  S
C5092      C5093   1.403       .  A
C5092      H5097   1.085       .  S
C5093      C5094   1.413       .  A
C5094      C5095   1.506       .  S
C5095      H5099   1.111   1_556  S
C5095      H5100   1.109       .  S
C5095      H5101   1.111   1_556  S
C5098      H5102   1.111       .  S
C5098      H5103   1.108       .  S
C5098      H5104   1.111       .  S
C5105      C5106   1.404       .  A
C5105      C5110   1.404       .  A
C5105      H5112   1.084       .  S
C5106      C5107   1.410   1_556  A
C5107      C5108   1.405       .  A
C5107      C5114   1.506       .  S
C5108      C5109   1.405   1_554  A
C5108      H5113   1.084       .  S
C5109      C5110   1.410       .  A
C5110      C5111   1.507       .  S
C5111      H5115   1.111       .  S
C5111      H5116   1.110       .  S
C5111      H5117   1.111       .  S
C5114      H5118   1.111       .  S
C5114      H5119   1.110       .  S
C5114      H5120   1.111       .  S
C5121      C5122   1.411       .  A
C5121      C5126   1.409       .  A
C5121      H5128   1.084       .  S
C5122      C5123   1.417       .  A
C5123      C5124   1.392       .  A
C5123      C5130   1.507       .  S
C5124      C5125   1.398       .  A
C5124      H5129   1.079       .  S
C5125      C5126   1.408       .  A
C5126      C5127   1.505       .  S
C5127      H5131   1.111       .  S
C5127      H5132   1.110       .  S
C5127      H5133   1.110       .  S
C5130      H5134   1.109       .  S
C5130      H5135   1.107       .  S
C5130      H5136   1.111       .  S
C5137      C5138   1.402       .  A
C5137      C5142   1.401       .  A
C5137      H5144   1.084       .  S
C5138      C5139   1.409       .  A
C5139      C5140   1.403       .  A
C5139      C5146   1.506   1_556  S
C5140      C5141   1.402       .  A
C5140      H5145   1.083       .  S
C5141      C5142   1.409       .  A
C5142      C5143   1.506       .  S
C5143      H5147   1.111       .  S
C5143      H5148   1.111       .  S
C5143      H5149   1.109       .  S
C5146      H5150   1.110   1_554  S
C5146      H5151   1.111       .  S
C5146      H5152   1.111       .  S
C5153      C5154   1.404       .  A
C5153      C5158   1.407       .  A
C5153      H5160   1.084       .  S
C5154      C5155   1.413       .  A
C5155      C5156   1.401       .  A
C5155      C5162   1.498       .  S
C5156      C5157   1.399       .  A
C5156      H5161   1.085       .  S
C5157      C5158   1.415       .  A
C5158      C5159   1.505       .  S
C5159      H5163   1.111       .  S
C5159      H5164   1.106   1_556  S
C5159      H5165   1.111       .  S
C5162      H5166   1.111       .  S
C5162      H5167   1.109       .  S
C5162      H5168   1.111       .  S
C5169      C5170   1.406       .  A
C5169      C5174   1.408       .  A
C5169      H5176   1.084   1_556  S
C5170      C5171   1.423       .  A
C5171      C5172   1.408       .  A
C5171      C5178   1.508       .  S
C5172      C5173   1.404       .  A
C5172      H5177   1.084       .  S
C5173      C5174   1.420       .  A
C5174      C5175   1.509   1_556  S
C5175      H5179   1.111       .  S
C5175      H5180   1.111   1_554  S
C5175      H5181   1.107       .  S
C5178      H5182   1.109       .  S
C5178      H5184   1.111       .  S
C5185      C5186   1.406       .  A
C5185      C5190   1.407       .  A
C5185      H5192   1.083       .  S
C5186      C5187   1.425   1_556  A
C5187      C5188   1.405       .  A
C5187      C5194   1.504       .  S
C5188      C5189   1.404   1_554  A
C5188      H5193   1.083       .  S
C5189      C5190   1.426       .  A
C5190      C5191   1.510       .  S
C5191      H5195   1.111       .  S
C5191      H5196   1.108       .  S
C5191      H5197   1.110       .  S
C5194      H5198   1.109       .  S
C5194      H5199   1.105       .  S
C5194      H5200   1.111       .  S
C5201      C5202   1.411       .  A
C5201      C5206   1.412       .  A
C5201      H5208   1.084       .  S
C5202      C5203   1.415       .  A
C5203      C5204   1.397       .  A
C5203      C5210   1.505       .  S
C5204      C5205   1.403       .  A
C5204      H5209   1.083       .  S
C5205      C5206   1.414       .  A
C5206      C5207   1.505       .  S
C5207      H5211   1.111       .  S
C5207      H5212   1.110       .  S
C5207      H5213   1.110       .  S
C5210      H5214   1.108       .  S
C5210      H5215   1.109       .  S
C5210      H5216   1.111       .  S
C5217      C5218   1.402       .  A
C5217      C5222   1.404       .  A
C5217      H5224   1.084       .  S
C5218      C5219   1.424       .  A
C5219      C5220   1.401       .  A
C5219      C5226   1.510       .  S
C5220      C5221   1.403       .  A
C5220      H5225   1.084       .  S
C5221      C5222   1.426       .  A
C5222      C5223   1.510       .  S
C5223      H5227   1.111       .  S
C5223      H5228   1.108       .  S
C5223      H5229   1.110       .  S
C5226      H5230   1.110       .  S
C5226      H5231   1.110       .  S
C5226      H5232   1.111       .  S
C5233      C5234   1.404       .  A
C5233      C5238   1.401       .  A
C5233      H5240   1.084       .  S
C5234      C5235   1.408       .  A
C5235      C5236   1.404       .  A
C5235      C5242   1.506       .  S
C5236      C5237   1.406       .  A
C5236      H5241   1.084       .  S
C5237      C5238   1.411       .  A
C5238      C5239   1.508       .  S
C5239      H5243   1.111       .  S
C5239      H5244   1.109       .  S
C5239      H5245   1.110       .  S
C5242      H5246   1.110       .  S
C5242      H5247   1.110       .  S
C5242      H5248   1.111       .  S
C5249      C5250   1.408       .  A
C5249      C5254   1.410       .  A
C5249      H5256   1.084       .  S
C5250      C5251   1.415       .  A
C5251      C5252   1.410       .  A
C5251      C5258   1.507       .  S
C5252      C5253   1.406       .  A
C5252      H5257   1.084       .  S
C5253      C5254   1.414       .  A
C5255      H5259   1.111   1_545  S
C5255      H5260   1.111   1_545  S
C5255      H5261   1.109       .  S
C5258      H5262   1.109       .  S
C5258      H5263   1.111       .  S
C5258      H5264   1.111       .  S
C5265      C5266   1.401       .  A
C5265      C5270   1.400       .  A
C5265      H5272   1.085       .  S
C5266      C5267   1.411       .  A
C5267      C5268   1.402       .  A
C5267      C5274   1.507       .  S
C5268      C5269   1.402       .  A
C5268      H5273   1.084       .  S
C5269      C5270   1.413       .  A
C5270      C5271   1.508       .  S
C5271      H5275   1.111       .  S
C5271      H5276   1.109       .  S
C5271      H5277   1.111       .  S
C5274      H5278   1.111       .  S
C5274      H5279   1.109       .  S
C5274      H5280   1.111       .  S
C5281      C5282   1.404       .  A
C5281      C5286   1.398       .  A
C5281      H5288   1.085       .  S
C5282      C5283   1.413       .  A
C5283      C5284   1.401       .  A
C5283      C5290   1.509       .  S
C5284      C5285   1.404       .  A
C5284      H5289   1.085       .  S
C5285      C5286   1.412       .  A
C5286      C5287   1.509       .  S
C5287      H5291   1.111       .  S
C5287      H5292   1.111       .  S
C5287      H5293   1.110       .  S
C5290      H5294   1.109       .  S
C5290      H5295   1.111       .  S
C5290      H5296   1.111       .  S
C5297      C5302   1.410       .  A
C5297      H5304   1.084       .  S
C5298      C5299   1.414       .  A
C5299      C5300   1.402       .  A
C5299      C5306   1.509       .  S
C5300      C5301   1.405       .  A
C5300      H5305   1.085       .  S
C5302      C5303   1.506       .  S
C5303      H5307   1.111       .  S
C5303      H5308   1.109       .  S
C5303      H5309   1.110       .  S
C5306      H5310   1.110       .  S
C5306      H5311   1.108       .  S
C5306      H5312   1.111       .  S
C5313      C5314   1.409       .  A
C5313      C5318   1.402       .  A
C5313      H5320   1.084       .  S
C5315      C5322   1.507       .  S
C5316      C5317   1.410       .  A
C5317      C5318   1.417       .  A
C5318      C5319   1.509       .  S
C5319      H5323   1.111       .  S
C5319      H5324   1.110       .  S
C5319      H5325   1.110       .  S
C5322      H5326   1.110       .  S
C5322      H5327   1.108       .  S
C5322      H5328   1.111       .  S
C5329      C5330   1.406       .  A
C5329      C5334   1.404       .  A
C5329      H5336   1.084       .  S
C5330      C5331   1.422       .  A
C5331      C5332   1.403       .  A
C5331      C5338   1.508       .  S
C5332      C5333   1.404       .  A
C5332      H5337   1.084       .  S
C5333      C5334   1.419       .  A
C5334      C5335   1.509       .  S
C5335      H5339   1.111       .  S
C5335      H5340   1.110       .  S
C5335      H5341   1.109       .  S
C5338      H5342   1.109       .  S
C5338      H5343   1.109       .  S
C5338      H5344   1.111       .  S
C5345      C5346   1.403       .  A
C5345      C5350   1.405       .  A
C5345      H5352   1.084       .  S
C5346      C5347   1.416       .  A
C5347      C5348   1.403       .  A
C5347      C5354   1.505       .  S
C5348      C5349   1.401       .  A
C5348      H5353   1.085       .  S
C5349      C5350   1.415       .  A
C5350      C5351   1.506       .  S
C5351      H5355   1.111       .  S
C5351      H5356   1.108       .  S
C5351      H5357   1.111       .  S
C5354      H5358   1.111       .  S
C5354      H5359   1.105       .  S
C5354      H5360   1.111       .  S
C5361      C5362   1.410       .  A
C5361      C5366   1.397       .  A
C5361      H5368   1.083       .  S
C5362      C5363   1.424       .  A
C5363      C5364   1.405       .  A
C5363      C5370   1.505       .  S
C5364      C5365   1.396       .  A
C5364      H5369   1.084       .  S
C5365      C5366   1.406       .  A
C5366      C5367   1.509       .  S
C5367      H5371   1.111       .  S
C5367      H5372   1.110       .  S
C5367      H5373   1.110       .  S
C5370      H5374   1.110       .  S
C5370      H5375   1.108       .  S
C5370      H5376   1.111       .  S
C5377      C5378   1.406       .  A
C5377      C5382   1.408       .  A
C5377      H5384   1.083       .  S
C5379      C5380   1.414       .  A
C5379      C5386   1.507       .  S
C5380      H5385   1.083       .  S
C5381      C5382   1.427       .  A
C5382      C5383   1.510       .  S
C5383      H5387   1.111       .  S
C5383      H5388   1.109       .  S
C5383      H5389   1.110       .  S
C5386      H5390   1.109       .  S
C5386      H5391   1.110       .  S
C5386      H5392   1.111       .  S
C5393      C5394   1.402       .  A
C5393      C5398   1.400       .  A
C5393      H5400   1.084       .  S
C5394      C5395   1.415       .  A
C5395      C5396   1.401       .  A
C5395      C5402   1.509       .  S
C5396      C5397   1.401       .  A
C5396      H5401   1.084       .  S
C5397      C5398   1.413       .  A
C5398      C5399   1.509       .  S
C5399      H5403   1.111       .  S
C5399      H5404   1.111       .  S
C5402      H5406   1.109       .  S
C5402      H5408   1.111       .  S
C5409      C5410   1.404       .  A
C5409      C5414   1.400       .  A
C5409      H5416   1.084       .  S
C5411      C5412   1.398       .  A
C5411      C5418   1.505       .  S
C5412      H5417   1.085       .  S
C5413      C5414   1.412       .  A
C5414      C5415   1.509       .  S
C5415      H5419   1.111       .  S
C5415      H5420   1.111       .  S
C5415      H5421   1.110       .  S
C5418      H5422   1.109       .  S
C5418      H5423   1.111       .  S
C5418      H5424   1.111       .  S
C5425      C5426   1.402       .  A
C5425      C5430   1.403       .  A
C5425      H5432   1.080       .  S
C5427      C5428   1.410       .  A
C5427      C5434   1.507       .  S
C5428      C5429   1.407   1_565  A
C5428      H5433   1.084       .  S
C5430      C5431   1.507       .  S
C5431      H5435   1.110       .  S
C5431      H5436   1.108       .  S
C5431      H5437   1.111       .  S
C5434      H5438   1.111       .  S
C5434      H5439   1.109       .  S
C5434      H5440   1.111       .  S
C5441      C5442   1.401       .  A
C5441      C5446   1.405       .  A
C5441      H5448   1.084       .  S
C5443      C5444   1.407       .  A
C5443      C5450   1.506       .  S
C5444      C5445   1.402   1_565  A
C5444      H5449   1.084       .  S
C5446      C5447   1.507       .  S
C5447      H5451   1.111       .  S
C5447      H5452   1.111       .  S
C5447      H5453   1.108       .  S
C5450      H5454   1.109       .  S
C5450      H5455   1.111       .  S
C5450      H5456   1.111       .  S
C5457      C5458   1.408       .  A
C5457      C5462   1.399       .  A
C5457      H5464   1.084       .  S
C5459      C5460   1.410       .  A
C5459      C5466   1.505       .  S
C5460      C5461   1.401   1_565  A
C5462      C5463   1.510       .  S
C5463      H5467   1.111       .  S
C5463      H5468   1.110       .  S
C5463      H5469   1.108       .  S
C5466      H5470   1.110       .  S
C5466      H5471   1.109       .  S
