geometry optimzed in LAMMPS
_audit_creation_date              2020-11-30 
_audit_creation_method            'lammps2cif' 
_symmetry_space_group_name_H-M    'P1' 
_symmetry_Int_Tables_number       1 
_symmetry_cell_setting            triclinic 
loop_ 
_symmetry_equiv_pos_as_xyz 
  x,y,z 
_cell_length_a                    38.77887752 
_cell_length_b                    38.85873983169462 
_cell_length_c                    40.405762030000126 
_cell_angle_alpha                 90.09008219233364 
_cell_angle_beta                  89.93522226350227 
_cell_angle_gamma                 86.20603444209029 
loop_ 
_atom_site_label 
_atom_site_type_symbol 
_atom_site_fract_x 
_atom_site_fract_y 
_atom_site_fract_z 
_atom_site_charge 
O1          O  0.00631277  0.39895604  0.45135120    -0.75400
O2          O  0.00319625  0.44139404  0.41222010    -0.54300
C3          C  0.00553004  0.40963162  0.42111821     0.78300
O4          O  0.39868290  0.99900540  0.05858323    -0.60000
O5          O  0.44022589  0.00195459  0.09831148    -0.53000
C6          C  0.40771875  0.50049732  0.08770125     0.70400
O7          O  0.40211321  0.99142727  0.44588708    -0.74500
O8          O  0.44627970  0.99564406  0.40904880    -0.55100
C9          C  0.41431093  0.99273584  0.41615202     0.76400
O10         O  0.00510047  0.40261000  0.06312413    -0.59700
O11         O  0.99740482  0.44687807  0.10022168    -0.52800
C12         C  0.50104657  0.41611870  0.09363714     0.73000
Zr13       Zr  0.00458524  0.42475393  0.50690534     2.54700
O14         O  0.46208840  0.38264637  0.50718950    -0.80200
O15         O  0.05802386  0.38758093  0.01199874    -0.93700
Zr16       Zr  0.42348663  0.99643110  0.50306685     2.64700
O17         O  0.39020719  0.44406895  0.50409588    -0.98600
O18         O  0.37420178  0.03586337  0.99763848    -0.80700
O19         O  0.46482818  0.45938757  0.47238757    -0.84000
O20         O  0.46333721  0.46109707  0.03681152    -2.18700
O21         O  0.09055083  0.49698407  0.06343327    -0.67400
O22         O  0.04611507  0.50085319  0.10068626    -0.52000
C23         C  0.07837833  0.49821350  0.09312466     0.71300
O24         O  0.48932065  0.09426452  0.44815672    -0.60300
O25         O  0.49644653  0.05037714  0.41052408    -0.52300
C26         C  0.99079788  0.08246359  0.41784383     0.73100
O27         O  0.48690639  0.09721666  0.05885712    -0.71700
O28         O  0.49232787  0.05490685  0.09811894    -0.50400
C29         C  0.48942763  0.08668236  0.08900066     0.74500
O30         O  0.09551371  0.49514903  0.45195165    -0.67100
O31         O  0.05337045  0.49488673  0.41252472    -0.54300
C32         C  0.08386422  0.99843288  0.42113990     0.72900
Zr33       Zr  0.06882313  0.50087397  0.00677528     2.77500
O34         O  0.10467644  0.04954734  0.50839736    -0.97800
O35         O  0.12115957  0.46172995  0.50973721    -0.78600
Zr36       Zr  0.48915910  0.07080959  0.00394069     2.70100
O37         O  0.02807458  0.11711854  0.00246955    -0.79900
O38         O  0.43996102  0.11285827  0.50353307    -0.99000
Zr39       Zr  0.99827056  0.99740722  0.44195576     2.21500
Zr40       Zr  0.49395934  0.50101653  0.06840478     2.11100
O41         O  0.02860405  0.03716045  0.03725361    -2.47700
O42         O  0.03007363  0.03620432  0.47355062    -0.79700
O43         O  0.03618793  0.46375660  0.03899482    -0.71900
O44         O  0.45693686  0.03367656  0.47180507    -2.32800
O45         O  0.03853629  0.46075907  0.47509443    -2.29000
O46         O  0.45500028  0.03435102  0.03552471    -0.73600
H47         H  0.45034174  0.44684419  0.05112119     0.78400
H48         H  0.44207244  0.04703993  0.45683540     0.79500
H49         H  0.04120640  0.05186442  0.05148680     0.81700
H50         H  0.05434373  0.44648495  0.46163643     0.79300
H51         H  0.38445756  0.06120988  0.50313682     0.42300
H52         H  0.42886962  0.10988584  0.98117667     0.41300
H53         H  0.04820410  0.10905154  0.51419415     0.41000
H54         H  0.12575470  0.04125202  0.01862009     0.38900
H55         H  0.11036789  0.43760323  0.00553877     0.42000
H56         H  0.05012981  0.36409292  0.50713215     0.36800
H57         H  0.47382413  0.36243942  0.49597472     0.42900
H58         H  0.39274480  0.43531209  0.02787541     0.39400
H59         H  0.10781477  0.05600580  0.98644447     0.44300
H60         H  0.04997999  0.36392993  0.01165098     0.43000
H61         H  0.36582708  0.45340343  0.50410349     0.43100
H62         H  0.42223687  0.10181613  0.01845192     0.43500
N63         N  0.49784786  0.24907766  0.20472982    -0.36700
N64         N  0.49235684  0.19539470  0.25481967    -0.57300
N65         N  0.49895013  0.24699982  0.30642395    -0.36700
N66         N  0.50017423  0.30123471  0.25636215    -0.57300
C67         C  0.48956502  0.22242196  0.18531199     0.26900
C68         C  0.49407137  0.27817785  0.18625413     0.26900
C69         C  0.49209754  0.21953179  0.32530476     0.26900
C70         C  0.49573379  0.27533538  0.32599452     0.26900
C71         C  0.49341151  0.17512835  0.22755025     0.35500
C72         C  0.49460675  0.17400899  0.28122172     0.35500
C73         C  0.50745051  0.32075787  0.22989191     0.35500
C74         C  0.50809182  0.31950816  0.28349874     0.35500
C75         C  0.48101268  0.23470393  0.15394993    -0.22000
C76         C  0.48360958  0.26981510  0.15461874    -0.22000
C77         C  0.48517100  0.23057096  0.35748330    -0.22000
C78         C  0.48702487  0.26571533  0.35780106    -0.22000
C79         C  0.49551784  0.14067524  0.23669338    -0.23000
C80         C  0.49619734  0.13996628  0.27063939    -0.23000
C81         C  0.51979105  0.35164332  0.24026779    -0.23000
C82         C  0.52023154  0.35083402  0.27422482    -0.23000
C83         C  0.49073700  0.18710905  0.19451278    -0.18400
C84         C  0.50175543  0.31178192  0.19649158    -0.18400
C85         C  0.50255615  0.30933746  0.31658811    -0.18400
C86         C  0.49362901  0.18459688  0.31481078    -0.18400
H87         H  0.47364004  0.21993919  0.13267377     0.14500
H88         H  0.47873252  0.28715004  0.13396656     0.14500
H89         H  0.47961547  0.21508771  0.37880541     0.14500
H90         H  0.48306011  0.28216812  0.37928964     0.14500
H91         H  0.49609997  0.11833458  0.22062019     0.12800
H92         H  0.49738093  0.11695077  0.28575147     0.12800
H93         H  0.52775617  0.37253723  0.22496246     0.12800
H94         H  0.52848832  0.37103086  0.29028026     0.12800
H95         H  0.50908005  0.24699072  0.22794371     0.26100
H96         H  0.50895252  0.24599209  0.28265850     0.26100
N97         N  0.24359376  0.49594299  0.20383792    -0.36700
N98         N  0.29922663  0.49234138  0.25211962    -0.57300
N99         N  0.24863146  0.48995719  0.30447685    -0.36700
N100        N  0.19295604  0.49636100  0.25608232    -0.57300
C101        C  0.27052721  0.50457006  0.18505476     0.26900
C102        C  0.21441451  0.50559513  0.18708464     0.26900
C103        C  0.27753825  0.49562572  0.32188968     0.26900
C104        C  0.22118815  0.49944652  0.32392815     0.26900
C105        C  0.31740325  0.48582071  0.22399616     0.35500
C106        C  0.32022483  0.48206513  0.27743325     0.35500
C107        C  0.17225647  0.49096598  0.22997248     0.35500
C108        C  0.17475180  0.48937823  0.28346671     0.35500
C109        C  0.25832055  0.52027752  0.15614559    -0.22000
C110        C  0.22282473  0.52070488  0.15733829    -0.22000
C111        C  0.26836896  0.50892603  0.35276480    -0.22000
C112        C  0.23279033  0.51140462  0.35402570    -0.22000
C113        C  0.35010025  0.47135245  0.23146232    -0.23000
C114        C  0.35189193  0.46899759  0.26538161    -0.23000
C115        C  0.14070614  0.48043402  0.24075526    -0.23000
C116        C  0.14226078  0.47948816  0.27473632    -0.23000
C117        C  0.30560608  0.49517279  0.19193572    -0.18400
C118        C  0.18068092  0.49843743  0.19687873    -0.18400
C119        C  0.18616232  0.49492272  0.31613275    -0.18400
C120        C  0.31183002  0.48688425  0.31124090    -0.18400
H121        H  0.27342897  0.52945275  0.13583315     0.14500
H122        H  0.20523113  0.53044591  0.13824581     0.14500
H123        H  0.28551991  0.51578354  0.37247092     0.14500
H124        H  0.21723430  0.52048707  0.37492763     0.14500
H125        H  0.37059392  0.46356861  0.21427630     0.12800
H126        H  0.37402265  0.45908031  0.27956080     0.12800
H127        H  0.11863814  0.47482917  0.22577793     0.12800
H128        H  0.12161597  0.47294591  0.29114152     0.12800
H129        H  0.24516190  0.48013960  0.22460690     0.26100
H130        H  0.24776136  0.47647863  0.28225981     0.26100
C131        C  0.15341001  0.49855754  0.17104313    -0.06500
C132        C  0.15617053  0.47287522  0.14655871    -0.17300
C133        C  0.13142586  0.47145975  0.12155410     0.11000
C134        C  0.10345532  0.49662968  0.12053532    -0.06100
C135        C  0.10167172  0.01869378  0.14568012    -0.17400
C136        C  0.12675275  0.01976637  0.17048012     0.11000
S137        S  0.13618028  0.43611379  0.09254373    -0.32300
S138        S  0.12342826  0.05594734  0.19865267    -0.32300
H139        H  0.15895578  0.05687934  0.20510375     0.29000
H140        H  0.10054894  0.43243751  0.08864465     0.29000
H141        H  0.17762721  0.45353625  0.14720427     0.19600
H142        H  0.08110397  0.03890457  0.14470011     0.19600
C143        C  0.11128581  0.49352425  0.39507893    -0.06200
C144        C  0.10861294  0.02320097  0.37045057    -0.17300
C145        C  0.13408134  0.02439529  0.34590403     0.11000
C146        C  0.16041887  0.49575999  0.34358985    -0.06100
C147        C  0.16393881  0.47031438  0.36821716    -0.17400
C148        C  0.13986328  0.46901446  0.39396176     0.11000
S149        S  0.13138514  0.06044569  0.31771733    -0.32300
S150        S  0.14645698  0.43478664  0.42378115    -0.32300
H151        H  0.11119336  0.43009609  0.42848898     0.29000
H152        H  0.16725121  0.06169179  0.31312976     0.29000
H153        H  0.08764734  0.04306401  0.37104275     0.19600
H154        H  0.18543687  0.45104329  0.36709880     0.19600
C155        C  0.33131020  0.49621026  0.16461413    -0.06200
C156        C  0.35713204  0.01725039  0.16825725    -0.17300
C157        C  0.38168906  0.02135534  0.14346424     0.11000
C158        C  0.38075026  0.50105674  0.11367239    -0.06100
C159        C  0.35434186  0.47819730  0.11084442    -0.17400
C160        C  0.32994892  0.47523990  0.13605729     0.11000
S161        S  0.41133962  0.05456283  0.14951616    -0.32300
S162        S  0.29822769  0.44381494  0.13048967    -0.32300
H163        H  0.29531136  0.43557929  0.16419637     0.29000
H164        H  0.41312743  0.06334235  0.11584789     0.29000
H165        H  0.35699394  0.03370666  0.18995287     0.19600
H166        H  0.35343046  0.46156834  0.08934230     0.19600
C167        C  0.34023049  0.48493852  0.33636415    -0.06200
C168        C  0.36530489  0.01059534  0.33552188    -0.17300
C169        C  0.39045542  0.01258356  0.36030004     0.11000
C170        C  0.38995603  0.48862366  0.38746702    -0.06100
C171        C  0.36538893  0.46360651  0.38826678    -0.17400
C172        C  0.34141547  0.46081514  0.36255082     0.11000
S173        S  0.42222890  0.04433853  0.35649886    -0.32300
S174        S  0.31349960  0.42553944  0.36402326    -0.32300
H175        H  0.31017817  0.42217377  0.32951631     0.29000
H176        H  0.41215757  0.05682641  0.32506427     0.29000
H177        H  0.36439863  0.02873214  0.31517617     0.19600
H178        H  0.36540614  0.44557172  0.40870041     0.19600
C179        C  0.48925967  0.16108095  0.16757799    -0.06200
C180        C  0.01634598  0.14723615  0.15586521    -0.17300
C181        C  0.01831692  0.12349885  0.12979122     0.11000
C182        C  0.48997383  0.11306951  0.11510635    -0.06100
C183        C  0.45862942  0.12819230  0.12710834    -0.17400
C184        C  0.45781379  0.15179087  0.15340701     0.11000
S185        S  0.06058997  0.10725796  0.11630835    -0.32300
S186        S  0.41574108  0.16781057  0.16807604    -0.32300
H187        H  0.42566781  0.19537271  0.18747956     0.29000
H188        H  0.05238375  0.10765187  0.08242366     0.29000
H189        H  0.03998555  0.15496621  0.16713961     0.19600
H190        H  0.43456663  0.12127572  0.11614932     0.19600
C191        C  0.49359353  0.15749997  0.34080199    -0.06200
C192        C  0.46276785  0.15270199  0.35789065    -0.17300
C193        C  0.46161391  0.12850397  0.38339060     0.11000
C194        C  0.49170227  0.10763926  0.39126589    -0.06100
C195        C  0.01950958  0.11096232  0.37196814    -0.17400
C196        C  0.02080959  0.13628988  0.34752589     0.11000
S197        S  0.42104930  0.12597798  0.40492132    -0.32300
S198        S  0.06143499  0.13982223  0.32636023    -0.32300
H199        H  0.05687600  0.17520223  0.31922727     0.29000
H200        H  0.42634511  0.09170671  0.41559067     0.29000
H201        H  0.43958771  0.16848126  0.35168591     0.19600
H202        H  0.04252824  0.09456360  0.37729867     0.19600
C203        C  0.50307405  0.33938312  0.17086391    -0.06200
C204        C  0.47637852  0.36560020  0.16995289    -0.17300
C205        C  0.47553194  0.39131820  0.14561371     0.11000
C206        C  0.50160094  0.39075445  0.12107527    -0.06100
C207        C  0.02814722  0.36222640  0.12011323    -0.17400
C208        C  0.52962572  0.33929998  0.14685913     0.11000
S209        S  0.43897123  0.42236348  0.14524925    -0.32300
S210        S  0.06387112  0.30331406  0.14213460    -0.32300
H211        H  0.06488067  0.29486682  0.17591934     0.29000
H212        H  0.45909435  0.45016722  0.15272113     0.29000
H213        H  0.45578817  0.36573344  0.18812225     0.19600
H214        H  0.04761010  0.36094935  0.10078976     0.19600
C215        C  0.50332666  0.33600997  0.34306560    -0.06200
C216        C  0.03090390  0.33232799  0.36636798    -0.17300
C217        C  0.03189408  0.35602437  0.39246622     0.11000
C218        C  0.50670685  0.38572500  0.39382183    -0.06100
C219        C  0.48012300  0.38836338  0.37022692    -0.17400
C220        C  0.47772291  0.36351520  0.34541425     0.11000
S221        S  0.06653708  0.34983946  0.42204885    -0.32300
S222        S  0.44089819  0.36788156  0.31811778    -0.32300
H223        H  0.43814198  0.33238433  0.31294469     0.29000
H224        H  0.06997334  0.38507008  0.42800269     0.29000
H225        H  0.05047237  0.31113073  0.36493073     0.19600
H226        H  0.46029863  0.40932850  0.37187714     0.19600
O227        O  0.01078652  0.39861729  0.95180106    -0.75400
O228        O  0.00578259  0.44100868  0.91264438    -0.54300
C229        C  0.00966976  0.40922635  0.92159409     0.78300
O230        O  0.39805121  0.00014521  0.55871220    -0.60000
O231        O  0.43984704  0.00187190  0.59838087    -0.53000
C232        C  0.40793290  0.50106590  0.58789382     0.70400
O233        O  0.40280780  0.99003324  0.94625487    -0.74500
O234        O  0.44691606  0.99420766  0.90936709    -0.55100
C235        C  0.41496212  0.99126252  0.91652485     0.76400
O236        O  0.00650186  0.40240753  0.56354610    -0.59700
O237        O  0.99886752  0.44698569  0.60027547    -0.52800
C238        C  0.50117717  0.41552131  0.59280429     0.73000
Zr239      Zr  0.00549894  0.42511931  0.00669645     2.54700
O240        O  0.46864236  0.37811110  0.00964783    -0.80200
O241        O  0.05783929  0.38786191  0.50641542    -0.93700
Zr242      Zr  0.42433321  0.99513959  0.00323912     2.64700
O243        O  0.39151585  0.44297788  0.00452424    -0.98600
O244        O  0.37519227  0.03915945  0.49632125    -0.80700
O245        O  0.46603500  0.45881554  0.97272151    -0.84000
O246        O  0.46253369  0.46141393  0.53666370    -2.18700
O247        O  0.08999729  0.49645270  0.56436291    -0.67400
O248        O  0.04560381  0.50057155  0.60159412    -0.52000
C249        C  0.07788774  0.49768435  0.59412622     0.71300
O250        O  0.48778537  0.09421803  0.94782649    -0.60300
O251        O  0.49454015  0.05022912  0.91030057    -0.52300
C252        C  0.99106103  0.08033286  0.91719470     0.73100
O253        O  0.48586364  0.09672405  0.55939658    -0.71700
O254        O  0.49060628  0.05426625  0.59852723    -0.50400
C255        C  0.48764733  0.08610039  0.58952878     0.74500
O256        O  0.09511050  0.49933321  0.95168764    -0.67100
O257        O  0.05343655  0.49808107  0.91188287    -0.54300
C258        C  0.08404443  0.99703369  0.92136181     0.72900
Zr259      Zr  0.06899564  0.49999904  0.50711809     2.77500
O260        O  0.10313104  0.05031513  0.00982951    -0.97800
O261        O  0.11968386  0.46066204  0.00697973    -0.78600
Zr262      Zr  0.48940168  0.07080089  0.50431648     2.70100
O263        O  0.02691092  0.11855406  0.50310167    -0.79900
O264        O  0.43903210  0.11199998  0.00348582    -0.99000
Zr265      Zr  0.99853062  0.99599461  0.94255228     2.21500
Zr266      Zr  0.49395271  0.50078742  0.56818958     2.11100
O267        O  0.02816768  0.03773995  0.53719600    -2.47700
O268        O  0.03056040  0.03513730  0.97343014    -0.79700
O269        O  0.03578476  0.46315924  0.53910839    -0.71900
O270        O  0.45702168  0.03299369  0.97187037    -2.32800
O271        O  0.03886258  0.46157933  0.97455226    -2.29000
O272        O  0.45478132  0.03470354  0.53573957    -0.73600
H273        H  0.44959029  0.44718641  0.55104536     0.78400
H274        H  0.44185030  0.04609112  0.95696043     0.79500
H275        H  0.04077681  0.05234445  0.55150442     0.81700
H276        H  0.05501880  0.44776249  0.96104997     0.79300
H277        H  0.35413640  0.02216865  0.00240896     0.42300
H278        H  0.44926038  0.13419595  0.49486990     0.41300
H279        H  0.05114948  0.10568023  0.00698783     0.41000
H280        H  0.12801232  0.03910913  0.51364084     0.38900
H281        H  0.11318630  0.43972247  0.51820823     0.42000
H282        H  0.07033888  0.38978205  0.99072622     0.36800
H283        H  0.45220656  0.38213625  0.99110714     0.42900
H284        H  0.39389272  0.43443976  0.52658017     0.39400
H285        H  0.10630745  0.05696978  0.48504492     0.44300
H286        H  0.06837272  0.39134378  0.52837756     0.43000
H287        H  0.36720378  0.45184813  0.00148762     0.43100
H288        H  0.42500195  0.10504720  0.48556203     0.43500
N289        N  0.49616647  0.24873091  0.70433845    -0.36700
N290        N  0.48825611  0.19585201  0.75485062    -0.57300
N291        N  0.49913197  0.24700526  0.80615270    -0.36700
N292        N  0.50323282  0.30042429  0.75572589    -0.57300
C293        C  0.48622771  0.22249233  0.68523336     0.26900
C294        C  0.49363173  0.27777101  0.68571192     0.26900
C295        C  0.49061738  0.22010352  0.82511285     0.26900
C296        C  0.49723515  0.27553327  0.82558491     0.26900
C297        C  0.48918637  0.17547042  0.72765214     0.35500
C298        C  0.49074541  0.17450750  0.78128936     0.35500
C299        C  0.50942811  0.32003278  0.72899386     0.35500
C300        C  0.51079805  0.31913145  0.78271774     0.35500
C301        C  0.47785085  0.23490795  0.65389307    -0.22000
C302        C  0.48229422  0.26973577  0.65425737    -0.22000
C303        C  0.48404917  0.23156214  0.85717474    -0.22000
C304        C  0.48779590  0.26645578  0.85737441    -0.22000
C305        C  0.49128024  0.14104286  0.73689734    -0.23000
C306        C  0.49220005  0.14043943  0.77082596    -0.23000
C307        C  0.52100982  0.35136856  0.73906463    -0.23000
C308        C  0.52197129  0.35076197  0.77303545    -0.23000
C309        C  0.48655237  0.18729706  0.69456527    -0.18400
C310        C  0.50275552  0.31103908  0.69570733    -0.18400
C311        C  0.50508713  0.30931896  0.81598458    -0.18400
C312        C  0.49049955  0.18517377  0.81483753    -0.18400
H313        H  0.46954129  0.22039729  0.63280817     0.14500
H314        H  0.47801307  0.28708240  0.63352116     0.14500
H315        H  0.47727688  0.21649117  0.87841091     0.14500
H316        H  0.48423226  0.28312529  0.87874749     0.14500
H317        H  0.49183461  0.11864354  0.72089986     0.12800
H318        H  0.49366825  0.11747651  0.78601332     0.12800
H319        H  0.52767261  0.37264621  0.72357793     0.12800
H320        H  0.52941348  0.37153445  0.78882096     0.12800
H321        H  0.50766456  0.24616852  0.72740519     0.26100
H322        H  0.50916062  0.24527629  0.78239773     0.26100
N323        N  0.24452619  0.49268012  0.70403812    -0.36700
N324        N  0.30022077  0.48948518  0.75230155    -0.57300
N325        N  0.24995405  0.48959381  0.80506917    -0.36700
N326        N  0.19418578  0.49543934  0.75678989    -0.57300
C327        C  0.27153227  0.50095923  0.68513110     0.26900
C328        C  0.21534464  0.50271845  0.68738884     0.26900
C329        C  0.27902001  0.49524840  0.82220538     0.26900
C330        C  0.22273423  0.49961074  0.82458410     0.26900
C331        C  0.31858295  0.48305898  0.72429427     0.35500
C332        C  0.32155208  0.48059450  0.77775926     0.35500
C333        C  0.17316454  0.48991539  0.73091943     0.35500
C334        C  0.17597436  0.48946691  0.78446617     0.35500
C335        C  0.25935761  0.51665720  0.65620288    -0.22000
C336        C  0.22385066  0.51752022  0.65752864    -0.22000
C337        C  0.27017940  0.50900658  0.85298818    -0.22000
C338        C  0.23463904  0.51180605  0.85447321    -0.22000
C339        C  0.35171716  0.46990222  0.73197740    -0.23000
C340        C  0.35359813  0.46837092  0.76591224    -0.23000
C341        C  0.14147079  0.48024175  0.74217012    -0.23000
C342        C  0.14321050  0.48004776  0.77614800    -0.23000
C343        C  0.30670599  0.49198450  0.69217808    -0.18400
C344        C  0.18140615  0.49662626  0.69757456    -0.18400
C345        C  0.18760059  0.49556200  0.81698959    -0.18400
C346        C  0.31319561  0.48624602  0.81144570    -0.18400
H347        H  0.27448093  0.52584765  0.63590855     0.14500
H348        H  0.20629342  0.52762336  0.63856358     0.14500
H349        H  0.28752394  0.51598878  0.87248760     0.14500
H350        H  0.21932006  0.52130437  0.87537768     0.14500
H351        H  0.37252501  0.46270091  0.71493821     0.12800
H352        H  0.37611501  0.45978576  0.78022554     0.12800
H353        H  0.11917448  0.47472278  0.72748166     0.12800
H354        H  0.12251126  0.47428487  0.79281729     0.12800
H355        H  0.24596475  0.47720379  0.72504249     0.26100
H356        H  0.24879271  0.47586535  0.78302689     0.26100
C357        C  0.15371900  0.49713626  0.67192443    -0.06500
C358        C  0.15632505  0.47193395  0.64696909    -0.17300
C359        C  0.13135842  0.47078011  0.62210123     0.11000
C360        C  0.10308829  0.49566353  0.62165403    -0.06100
C361        C  0.10064775  0.01941303  0.64648606    -0.17400
C362        C  0.12597666  0.02072939  0.67108619     0.11000
S363        S  0.13632955  0.43598640  0.59253048    -0.32300
S364        S  0.12201714  0.05627986  0.69995722    -0.32300
H365        H  0.15758909  0.05823211  0.70564867     0.29000
H366        H  0.10075023  0.43224848  0.58832506     0.29000
H367        H  0.17791545  0.45273370  0.64709230     0.19600
H368        H  0.07935456  0.03890527  0.64625082     0.19600
C369        C  0.11183890  0.49772707  0.89532810    -0.06200
C370        C  0.10819955  0.02150720  0.87032458    -0.17300
C371        C  0.13339754  0.02260226  0.84552843     0.11000
C372        C  0.16185815  0.49787944  0.84447326    -0.06100
C373        C  0.16479233  0.47327044  0.86987631    -0.17400
C374        C  0.14034708  0.47310161  0.89535603     0.11000
S375        S  0.13029046  0.05847284  0.81714658    -0.32300
S376        S  0.14635424  0.44006791  0.92647227    -0.32300
H377        H  0.11111069  0.43414613  0.92928691     0.29000
H378        H  0.16610689  0.06005704  0.81250324     0.29000
H379        H  0.08728362  0.04140797  0.87107771     0.19600
H380        H  0.18605776  0.45371003  0.86954417     0.19600
C381        C  0.33253777  0.49385765  0.66506709    -0.06200
C382        C  0.35716435  0.01999295  0.66833123    -0.17300
C383        C  0.38171437  0.02323729  0.64337190     0.11000
C384        C  0.38126312  0.50094743  0.61398467    -0.06100
C385        C  0.35534090  0.47763052  0.61082710    -0.17400
C386        C  0.33140913  0.47347014  0.63613637     0.11000
S387        S  0.41181695  0.05612083  0.64867309    -0.32300
S388        S  0.30061802  0.44121170  0.63026084    -0.32300
H389        H  0.29895251  0.43185065  0.66379138     0.29000
H390        H  0.41370554  0.06396987  0.61480516     0.29000
H391        H  0.35710274  0.03705816  0.68958883     0.19600
H392        H  0.35456458  0.46145182  0.58899487     0.19600
C393        C  0.34160147  0.48485369  0.83642829    -0.06200
C394        C  0.36531529  0.01052901  0.83660535    -0.17300
C395        C  0.39096185  0.01166639  0.86098713     0.11000
C396        C  0.39133806  0.48900573  0.88728887    -0.06100
C397        C  0.36727086  0.46353461  0.88800237    -0.17400
C398        C  0.34326791  0.46056203  0.86241693     0.11000
S399        S  0.42342850  0.04266859  0.85691284    -0.32300
S400        S  0.31584195  0.42490371  0.86377309    -0.32300
H401        H  0.31348030  0.42105339  0.82922910     0.29000
H402        H  0.41456333  0.05386420  0.82475226     0.29000
H403        H  0.36442950  0.02897261  0.81651450     0.19600
H404        H  0.36771049  0.44528665  0.90827862     0.19600
C405        C  0.48564906  0.16103476  0.66779048    -0.06200
C406        C  0.01816695  0.14818928  0.65439218    -0.17300
C407        C  0.01887752  0.12429702  0.62849895     0.11000
C408        C  0.48748106  0.11255170  0.61568726    -0.06100
C409        C  0.45590697  0.12841716  0.62647805    -0.17400
C410        C  0.45458805  0.15188407  0.65291317     0.11000
S411        S  0.06059276  0.10737844  0.61403988    -0.32300
S412        S  0.41270937  0.16929540  0.66646895    -0.32300
H413        H  0.42156069  0.17243919  0.70000050     0.29000
H414        H  0.05122813  0.10573659  0.58055015     0.29000
H415        H  0.04232740  0.15575816  0.66471345     0.19600
H416        H  0.43209814  0.12201927  0.61468863     0.19600
C417        C  0.49061202  0.15811703  0.84095550    -0.06200
C418        C  0.45974573  0.15278650  0.85784961    -0.17300
C419        C  0.45871727  0.12825928  0.88316204     0.11000
C420        C  0.48897809  0.10757419  0.89094805    -0.06100
C421        C  0.02055058  0.10818171  0.87143436    -0.17400
C422        C  0.02272968  0.13377984  0.84734553     0.11000
S423        S  0.41817820  0.12523288  0.90467273    -0.32300
S424        S  0.06402821  0.13693577  0.82728002    -0.32300
H425        H  0.05955229  0.17183310  0.81829585     0.29000
H426        H  0.42423543  0.09141232  0.91638651     0.29000
H427        H  0.43643667  0.16835268  0.85162936     0.19600
H428        H  0.04324986  0.09142951  0.87700518     0.19600
C429        C  0.50384106  0.33855933  0.66994591    -0.06200
C430        C  0.47708079  0.36473530  0.66921956    -0.17300
C431        C  0.47576178  0.39038081  0.64464295     0.11000
C432        C  0.50181745  0.38989853  0.62008920    -0.06100
C433        C  0.03037792  0.36233323  0.62063461    -0.17400
C434        C  0.53007464  0.33836470  0.64561420     0.11000
S435        S  0.43956184  0.42218239  0.64365974    -0.32300
S436        S  0.06725391  0.30451448  0.64400494    -0.32300
H437        H  0.06950463  0.29868829  0.67828650     0.29000
H438        H  0.42157454  0.40958296  0.67085803     0.29000
H439        H  0.45689316  0.36462146  0.68774526     0.19600
H440        H  0.04928395  0.36051066  0.60082098     0.19600
C441        C  0.50589221  0.33628852  0.84242583    -0.06200
C442        C  0.03347008  0.33000183  0.86848445    -0.17300
C443        C  0.03504873  0.35412638  0.89417483     0.11000
C444        C  0.50794351  0.38531517  0.89424488    -0.06100
C445        C  0.48298659  0.38917398  0.86912458    -0.17400
C446        C  0.48124349  0.36476767  0.84377190     0.11000
S447        S  0.06883638  0.34690604  0.92444302    -0.32300
S448        S  0.44628145  0.37088872  0.81452075    -0.32300
H449        H  0.44100789  0.33563195  0.81085560     0.29000
H450        H  0.07441064  0.38199465  0.92879330     0.29000
H451        H  0.05208547  0.30793800  0.86778963     0.19600
H452        H  0.46381990  0.41078249  0.86993426     0.19600
O453        O  0.00640924  0.90037432  0.45168732    -0.75400
O454        O  0.00194423  0.94276691  0.41250009    -0.54300
C455        C  0.00494205  0.91094343  0.42147324     0.78300
O456        O  0.39795264  0.49785925  0.05735654    -0.60000
O457        O  0.43923442  0.50189779  0.09715529    -0.53000
C458        C  0.40863237  0.00097858  0.08892025     0.70400
O459        O  0.40203496  0.49028055  0.44530076    -0.74500
O460        O  0.44652384  0.49356665  0.40868010    -0.55100
C461        C  0.41442946  0.49095271  0.41562498     0.76400
O462        O  0.00339716  0.90394014  0.06500046    -0.59700
O463        O  0.99615547  0.94862021  0.10174420    -0.52800
C464        C  0.50231943  0.91487460  0.09318883     0.73000
Zr465      Zr  0.00275635  0.92645300  0.50689875     2.54700
O466        O  0.46070296  0.88128018  0.50588641    -0.80200
O467        O  0.05431411  0.88531417  0.01087129    -0.93700
Zr468      Zr  0.42372865  0.49488227  0.50233052     2.64700
O469        O  0.38548127  0.94923379  0.50775685    -0.98600
O470        O  0.37256658  0.53254732  0.99765635    -0.80700
O471        O  0.46360093  0.96004876  0.47274135    -0.84000
O472        O  0.46277551  0.96099325  0.03736844    -2.18700
O473        O  0.09077054  0.99502177  0.06392632    -0.67400
O474        O  0.04642262  0.99875382  0.10129177    -0.52000
C475        C  0.07866850  0.99560709  0.09367615     0.71300
O476        O  0.48709448  0.59376302  0.44674196    -0.60300
O477        O  0.49538159  0.54961469  0.40953770    -0.52300
C478        C  0.99360244  0.57927941  0.41597961     0.73100
O479        O  0.48388898  0.59801540  0.05784996    -0.71700
O480        O  0.48996562  0.55606049  0.09739170    -0.50400
C481        C  0.48636684  0.58775689  0.08807838     0.74500
O482        O  0.09397009  0.99860772  0.45153203    -0.67100
O483        O  0.05216907  0.99874216  0.41178172    -0.54300
C484        C  0.08511877  0.49430886  0.42165731     0.72900
Zr485      Zr  0.06864175  0.00024871  0.00727038     2.77500
O486        O  0.10410214  0.54966635  0.50855910    -0.97800
O487        O  0.11867816  0.96030686  0.50842030    -0.78600
Zr488      Zr  0.48782251  0.57120039  0.00310718     2.70100
O489        O  0.02657568  0.61708215  0.00500283    -0.79900
O490        O  0.43456068  0.60915906  0.50288206    -0.99000
Zr491      Zr  0.99912743  0.49531296  0.44192100     2.21500
Zr492      Zr  0.49465062  0.00012132  0.06877329     2.11100
O493        O  0.02798271  0.53689221  0.03658031    -2.47700
O494        O  0.03097437  0.53466875  0.47284667    -0.79700
O495        O  0.03519901  0.96381028  0.03950887    -0.71900
O496        O  0.45603701  0.53296340  0.47078365    -2.32800
O497        O  0.03733187  0.96213748  0.47495115    -2.29000
O498        O  0.45400269  0.53437213  0.03465390    -0.73600
H499        H  0.44973364  0.94684071  0.05174346     0.78400
H500        H  0.44092446  0.54575970  0.45560198     0.79500
H501        H  0.04023155  0.55181618  0.05088443     0.81700
H502        H  0.05308624  0.94797907  0.46134294     0.79300
H503        H  0.37515720  0.54738730  0.47824616     0.42300
H504        H  0.42059195  0.60273292  0.01551814     0.41300
H505        H  0.05141174  0.60444201  0.50464281     0.41000
H506        H  0.12345591  0.54492030  0.99473156     0.38900
H507        H  0.11101406  0.93752248  0.00617506     0.42000
H508        H  0.06612806  0.88828489  0.49130828     0.36800
H509        H  0.47284002  0.86112331  0.51675047     0.42900
H510        H  0.39039184  0.93766923  0.02899168     0.39400
H511        H  0.09026153  0.56932480  0.00087130     0.44300
H512        H  0.04547951  0.86246689  0.00625168     0.43000
H513        H  0.38708910  0.93739381  0.48604464     0.43100
H514        H  0.44400971  0.63294063  0.00724044     0.43500
N515        N  0.49693232  0.74847916  0.20435968    -0.36700
N516        N  0.49023797  0.69517632  0.25448638    -0.57300
N517        N  0.49837637  0.74635416  0.30612482    -0.36700
N518        N  0.50085632  0.80020407  0.25605457    -0.57300
C519        C  0.48663416  0.72241401  0.18525309     0.26900
C520        C  0.49392580  0.77759825  0.18592483     0.26900
C521        C  0.49067600  0.71895469  0.32474192     0.26900
C522        C  0.49437769  0.77478697  0.32555413     0.26900
C523        C  0.49094276  0.67505196  0.22714471     0.35500
C524        C  0.49365238  0.67360931  0.28066822     0.35500
C525        C  0.50784065  0.81993418  0.22962119     0.35500
C526        C  0.50741950  0.81897180  0.28328930     0.35500
C527        C  0.47766749  0.73501737  0.15412203    -0.22000
C528        C  0.48213561  0.76979835  0.15458143    -0.22000
C529        C  0.48233486  0.73010457  0.35660391    -0.22000
C530        C  0.48423902  0.76527305  0.35697635    -0.22000
C531        C  0.49397268  0.64054274  0.23600927    -0.23000
C532        C  0.49565397  0.63961832  0.26988898    -0.23000
C533        C  0.51859619  0.85144246  0.24013892    -0.23000
C534        C  0.51838077  0.85081662  0.27407830    -0.23000
C535        C  0.48709778  0.68719867  0.19431107    -0.18400
C536        C  0.50271727  0.81082682  0.19611621    -0.18400
C537        C  0.50143137  0.80883390  0.31635332    -0.18400
C538        C  0.49274522  0.68400760  0.31425829    -0.18400
H539        H  0.46888405  0.72065453  0.13313584     0.14500
H540        H  0.47731033  0.78732276  0.13406555     0.14500
H541        H  0.47571863  0.71470659  0.37765749     0.14500
H542        H  0.47923530  0.78184603  0.37823006     0.14500
H543        H  0.49450847  0.61831249  0.21979601     0.12800
H544        H  0.49761318  0.61648487  0.28482565     0.12800
H545        H  0.52561818  0.87281111  0.22495813     0.12800
H546        H  0.52516194  0.87162780  0.29013872     0.12800
H547        H  0.50888174  0.74588703  0.22724531     0.26100
H548        H  0.50944681  0.74513410  0.28275699     0.26100
N549        N  0.24440440  0.98976982  0.20412031    -0.36700
N550        N  0.29980650  0.98847105  0.25241112    -0.57300
N551        N  0.24928373  0.99025115  0.30508135    -0.36700
N552        N  0.19370685  0.99396525  0.25681030    -0.57300
C553        C  0.27129360  0.99839056  0.18519832     0.26900
C554        C  0.21518137  0.99934432  0.18736195     0.26900
C555        C  0.27830706  0.99618983  0.32216305     0.26900
C556        C  0.22199585  0.00032134  0.32451283     0.26900
C557        C  0.31843392  0.98190559  0.22459683     0.35500
C558        C  0.32117440  0.98069226  0.27809502     0.35500
C559        C  0.17280567  0.98764551  0.23105970     0.35500
C560        C  0.17523840  0.98926090  0.28461503     0.35500
C561        C  0.25897491  0.01381853  0.15621128    -0.22000
C562        C  0.22351301  0.01418032  0.15747843    -0.22000
C563        C  0.26936036  0.01025732  0.35280405    -0.22000
C564        C  0.23381173  0.01290380  0.35427047    -0.22000
C565        C  0.35179760  0.96974063  0.23260815    -0.23000
C566        C  0.35352222  0.96895069  0.26657222    -0.23000
C567        C  0.14086345  0.97888014  0.24250029    -0.23000
C568        C  0.14238063  0.97996062  0.27648798    -0.23000
C569        C  0.30655833  0.99016116  0.19235739    -0.18400
C570        C  0.18133965  0.99308600  0.19755953    -0.18400
C571        C  0.18688864  0.99594712  0.31702581    -0.18400
C572        C  0.31254141  0.98698444  0.31163116    -0.18400
H573        H  0.27398906  0.02322536  0.13594447     0.14500
H574        H  0.20586111  0.02407875  0.13850308     0.14500
H575        H  0.28664892  0.01744278  0.37227174     0.14500
H576        H  0.21842486  0.02248770  0.37509969     0.14500
H577        H  0.37286577  0.96283162  0.21576656     0.12800
H578        H  0.37617103  0.96130276  0.28109771     0.12800
H579        H  0.11857858  0.97312146  0.22789834     0.12800
H580        H  0.12151473  0.97501287  0.29326883     0.12800
H581        H  0.24593707  0.97448508  0.22526468     0.26100
H582        H  0.24823243  0.97618225  0.28324263     0.26100
C583        C  0.15378135  0.99355669  0.17188766    -0.06500
C584        C  0.15526363  0.96725156  0.14792868    -0.17300
C585        C  0.13048968  0.96657606  0.12277730     0.11000
C586        C  0.10372371  0.99301381  0.12118516    -0.06100
C587        C  0.10014519  0.52174427  0.14553591    -0.17400
C588        C  0.12509219  0.52336752  0.17038984     0.11000
S589        S  0.13372734  0.93074912  0.09422533    -0.32300
S590        S  0.11994526  0.55821203  0.19987589    -0.32300
H591        H  0.15545951  0.56250974  0.20353799     0.29000
H592        H  0.09793965  0.92943821  0.08919293     0.29000
H593        H  0.17582043  0.94697773  0.14899422     0.19600
H594        H  0.07861585  0.54096307  0.14504044     0.19600
C595        C  0.11068027  0.99763831  0.39505194    -0.06200
C596        C  0.10756416  0.51868336  0.37024790    -0.17300
C597        C  0.13219102  0.52067116  0.34515164     0.11000
C598        C  0.16118566  0.99826394  0.34456395    -0.06100
C599        C  0.16344139  0.97293781  0.36933066    -0.17400
C600        C  0.13876165  0.97249463  0.39461494     0.11000
S601        S  0.12673122  0.55624174  0.31661247    -0.32300
S602        S  0.14405278  0.93852614  0.42490808    -0.32300
H603        H  0.10861673  0.93451838  0.42906589     0.29000
H604        H  0.16224135  0.55999492  0.31206157     0.29000
H605        H  0.08588557  0.53775899  0.37110272     0.19600
H606        H  0.18434634  0.95300258  0.36861536     0.19600
C607        C  0.33246632  0.99257983  0.16536478    -0.06200
C608        C  0.35714091  0.51966127  0.16706147    -0.17300
C609        C  0.38166591  0.52241031  0.14201328     0.11000
C610        C  0.38171742  0.00039844  0.11481378    -0.06100
C611        C  0.35643411  0.97637898  0.11154329    -0.17400
C612        C  0.33225365  0.97187016  0.13658412     0.11000
S613        S  0.41250502  0.55461794  0.14729085    -0.32300
S614        S  0.30228730  0.93888103  0.13048592    -0.32300
H615        H  0.30014425  0.92980195  0.16405248     0.29000
H616        H  0.41373006  0.56312359  0.11351444     0.29000
H617        H  0.35790537  0.53630046  0.18857327     0.19600
H618        H  0.35634862  0.95997444  0.08982214     0.19600
C619        C  0.34072005  0.98575014  0.33680179    -0.06200
C620        C  0.36538701  0.50923389  0.33500456    -0.17300
C621        C  0.39065988  0.51084137  0.35975495     0.11000
C622        C  0.38984522  0.99042258  0.38808539    -0.06100
C623        C  0.36576545  0.96496252  0.38881239    -0.17400
C624        C  0.34217567  0.96161430  0.36293289     0.11000
S625        S  0.42259944  0.54243391  0.35620740    -0.32300
S626        S  0.31514105  0.92561486  0.36413339    -0.32300
H627        H  0.31128775  0.92263676  0.32965165     0.29000
H628        H  0.41213741  0.55575870  0.32519887     0.29000
H629        H  0.36472526  0.52741043  0.31469991     0.19600
H630        H  0.36600987  0.94690079  0.40923588     0.19600
C631        C  0.48561698  0.66133441  0.16731688    -0.06200
C632        C  0.01741485  0.64868381  0.15261185    -0.17300
C633        C  0.01830375  0.62430524  0.12702384     0.11000
C634        C  0.48650673  0.61437100  0.11404803    -0.06100
C635        C  0.45502959  0.62878855  0.12659120    -0.17400
C636        C  0.45421791  0.65149738  0.15362880     0.11000
S637        S  0.06000508  0.60828700  0.11178590    -0.32300
S638        S  0.41256636  0.66696056  0.16950643    -0.32300
H639        H  0.42302441  0.66975190  0.20262926     0.29000
H640        H  0.05013760  0.60825116  0.07833319     0.29000
H641        H  0.04149753  0.65706488  0.16239065     0.19600
H642        H  0.43095663  0.62171571  0.11579362     0.19600
C643        C  0.49259346  0.65676059  0.34004169    -0.06200
C644        C  0.46152866  0.65174281  0.35663834    -0.17300
C645        C  0.46001535  0.62725631  0.38179594     0.11000
C646        C  0.49005333  0.60650976  0.38990607    -0.06100
C647        C  0.02279023  0.60886640  0.37060842    -0.17400
C648        C  0.02377179  0.63448035  0.34627891     0.11000
S649        S  0.41905307  0.62412876  0.40250233    -0.32300
S650        S  0.06459441  0.63967107  0.32597988    -0.32300
H651        H  0.05901384  0.67497673  0.31888537     0.29000
H652        H  0.42478920  0.59020843  0.41404085     0.29000
H653        H  0.43840459  0.66752480  0.35026434     0.19600
H654        H  0.04622045  0.59334590  0.37650951     0.19600
C655        C  0.50443740  0.83824372  0.17038388    -0.06200
C656        C  0.47859252  0.86531082  0.17019915    -0.17300
C657        C  0.47754029  0.89078426  0.14556890     0.11000
C658        C  0.50297612  0.88934703  0.12044936    -0.06100
C659        C  0.02986733  0.87021611  0.12810214    -0.17400
C660        C  0.53001741  0.83693215  0.14533775     0.11000
S661        S  0.44236326  0.92369509  0.14545566    -0.32300
S662        S  0.07033642  0.81876495  0.15834259    -0.32300
H663        H  0.06516347  0.80950702  0.19145752     0.29000
H664        H  0.42024599  0.90621158  0.16624425     0.29000
H665        H  0.45888661  0.86615384  0.18925330     0.19600
H666        H  0.05277413  0.87312745  0.11322939     0.19600
C667        C  0.50180250  0.83562416  0.34291291    -0.06200
C668        C  0.03068369  0.83401337  0.36603970    -0.17300
C669        C  0.03245801  0.85849252  0.39141829     0.11000
C670        C  0.50483368  0.88591416  0.39335165    -0.06100
C671        C  0.47902944  0.88885698  0.36900395    -0.17400
C672        C  0.47688116  0.86386140  0.34426564     0.11000
S673        S  0.06998223  0.85504000  0.41784289    -0.32300
S674        S  0.44140724  0.86926470  0.31549430    -0.32300
H675        H  0.43736085  0.83388195  0.31097564     0.29000
H676        H  0.06953210  0.89006943  0.42630086     0.29000
H677        H  0.05162699  0.81437138  0.36300379     0.19600
H678        H  0.45961153  0.91023757  0.36993622     0.19600
O679        O  0.00550037  0.89930515  0.95254162    -0.75400
O680        O  0.00170462  0.94164028  0.91326727    -0.54300
C681        C  0.00416416  0.90988959  0.92228786     0.78300
O682        O  0.39790101  0.49865685  0.55760514    -0.60000
O683        O  0.43949284  0.50223172  0.59720994    -0.53000
C684        C  0.40820208  0.00162810  0.58907104     0.70400
O685        O  0.40350736  0.48966725  0.94505468    -0.74500
O686        O  0.44776300  0.49450866  0.90845733    -0.55100
C687        C  0.41579684  0.49126429  0.91538905     0.76400
O688        O  0.00350374  0.90370761  0.56331919    -0.59700
O689        O  0.99549531  0.94784846  0.60056170    -0.52800
C690        C  0.50042906  0.91431633  0.59297394     0.73000
Zr691      Zr  0.00344198  0.92543004  0.00793912     2.54700
O692        O  0.46216773  0.88201207  0.00707174    -0.80200
O693        O  0.05113695  0.88337304  0.51033555    -0.93700
Zr694      Zr  0.42451246  0.49415673  0.00234028     2.64700
O695        O  0.38809174  0.94629532  0.00600351    -0.98600
O696        O  0.37232988  0.53430236  0.49897021    -0.80700
O697        O  0.46505804  0.95945182  0.97304123    -0.84000
O698        O  0.46141738  0.96132556  0.53689144    -2.18700
O699        O  0.09007902  0.99633327  0.56388913    -0.67400
O700        O  0.04596443  0.00009461  0.60147508    -0.52000
C701        C  0.07818616  0.99705774  0.59373117     0.71300
O702        O  0.48812393  0.59358386  0.94655174    -0.60300
O703        O  0.49527652  0.54929167  0.90938116    -0.52300
C704        C  0.99283429  0.58056585  0.91675738     0.73100
O705        O  0.48481501  0.59774356  0.55833640    -0.71700
O706        O  0.48914126  0.55553924  0.59776813    -0.50400
C707        C  0.48623664  0.58732307  0.58859531     0.74500
O708        O  0.09437850  0.99796523  0.95167299    -0.67100
O709        O  0.05232984  0.99670455  0.91224483    -0.54300
C710        C  0.08505954  0.49851808  0.92133162     0.72900
Zr711      Zr  0.06818234  0.00093405  0.50704593     2.77500
O712        O  0.10449887  0.54994003  0.01081123    -0.97800
O713        O  0.11993091  0.96064191  0.00894764    -0.78600
Zr714      Zr  0.48722964  0.57135837  0.50319203     2.70100
O715        O  0.02805303  0.61632253  0.50379730    -0.79900
O716        O  0.43667302  0.61073337  0.99856341    -0.99000
Zr717      Zr  0.99917429  0.49581425  0.94130315     2.21500
Zr718      Zr  0.49400352  0.99960793  0.56874338     2.11100
O719        O  0.02832839  0.53657893  0.53657101    -2.47700
O720        O  0.03039264  0.53522258  0.97276996    -0.79700
O721        O  0.03478253  0.96427539  0.53902613    -0.71900
O722        O  0.45673141  0.53250887  0.97109684    -2.32800
O723        O  0.03775205  0.96106467  0.97562098    -2.29000
O724        O  0.45389639  0.53432950  0.53474031    -0.73600
H725        H  0.44802919  0.94731218  0.55109425     0.78400
H726        H  0.44157630  0.54533918  0.95597513     0.79500
H727        H  0.04062849  0.55142776  0.55088777     0.81700
H728        H  0.05344380  0.94688855  0.96197128     0.79300
H729        H  0.38044095  0.55347974  0.98682378     0.42300
H730        H  0.44260540  0.63248833  0.49909651     0.41300
H731        H  0.01278276  0.63711368  0.99567459     0.41000
H732        H  0.10378695  0.55710624  0.53201448     0.38900
H733        H  0.10907868  0.93733482  0.50771566     0.42000
H734        H  0.06812565  0.89037819  0.99106408     0.36800
H735        H  0.44355572  0.89124717  0.99215239     0.42900
H736        H  0.36188354  0.96063483  0.50828087     0.39400
H737        H  0.12800361  0.53982784  0.50483857     0.44300
H738        H  0.04112612  0.86136281  0.50453748     0.43000
H739        H  0.36411563  0.95666229  0.00470674     0.43100
H740        H  0.42263745  0.60351850  0.48211005     0.43500
N741        N  0.49661312  0.74920190  0.70505362    -0.36700
N742        N  0.48888634  0.69571940  0.75440834    -0.57300
N743        N  0.49862810  0.74630015  0.80670740    -0.36700
N744        N  0.50319116  0.80028449  0.75724710    -0.57300
C745        C  0.48557720  0.72356801  0.68576679     0.26900
C746        C  0.49301476  0.77877478  0.68731250     0.26900
C747        C  0.49139126  0.71878187  0.82533846     0.26900
C748        C  0.49729924  0.77429556  0.82681022     0.26900
C749        C  0.48952757  0.67573547  0.72696201     0.35500
C750        C  0.49104857  0.67400243  0.78052873     0.35500
C751        C  0.51007900  0.82004532  0.73084298     0.35500
C752        C  0.51037707  0.81865403  0.78454440     0.35500
C753        C  0.47531161  0.73692189  0.65528768    -0.22000
C754        C  0.47975741  0.77173017  0.65633483    -0.22000
C755        C  0.48627275  0.72931467  0.85792550    -0.22000
C756        C  0.48951388  0.76428026  0.85876054    -0.22000
C757        C  0.49119861  0.64118895  0.73567454    -0.23000
C758        C  0.49199748  0.64008901  0.76957304    -0.23000
C759        C  0.52186463  0.85112335  0.74141498    -0.23000
C760        C  0.52197345  0.85028078  0.77541384    -0.23000
C761        C  0.48637507  0.68813848  0.69417294    -0.18400
C762        C  0.50312982  0.81161084  0.69749510    -0.18400
C763        C  0.50436945  0.80837045  0.81758036    -0.18400
C764        C  0.49105067  0.68413417  0.81422265    -0.18400
H765        H  0.46567048  0.72303877  0.63437536     0.14500
H766        H  0.47420297  0.78974308  0.63634067     0.14500
H767        H  0.48092877  0.71357772  0.87913867     0.14500
H768        H  0.48694388  0.78030943  0.88066110     0.14500
H769        H  0.49130443  0.61906442  0.71935518     0.12800
H770        H  0.49300509  0.61688401  0.78440533     0.12800
H771        H  0.52897412  0.87246860  0.72624363     0.12800
H772        H  0.52928333  0.87081226  0.79156906     0.12800
H773        H  0.50970904  0.74598035  0.72732450     0.26100
H774        H  0.50719907  0.74533019  0.78246276     0.26100
N775        N  0.24451304  0.99216537  0.70447244    -0.36700
N776        N  0.29980158  0.99106657  0.75333869    -0.57300
N777        N  0.24906728  0.98964919  0.80552716    -0.36700
N778        N  0.19368073  0.99401838  0.75668661    -0.57300
C779        C  0.27140781  0.00134086  0.68587544     0.26900
C780        C  0.21531501  0.00134137  0.68746939     0.26900
C781        C  0.27779634  0.99580695  0.82300943     0.26900
C782        C  0.22145821  0.99909079  0.82478264     0.26900
C783        C  0.31859182  0.98529879  0.72549319     0.35500
C784        C  0.32111668  0.98262782  0.77891973     0.35500
C785        C  0.17290353  0.98827200  0.73069326     0.35500
C786        C  0.17517697  0.98832546  0.78423334     0.35500
C787        C  0.25916255  0.01658272  0.65677844    -0.22000
C788        C  0.22372078  0.01639301  0.65771032    -0.22000
C789        C  0.26834839  0.00926336  0.85375141    -0.22000
C790        C  0.23278258  0.01139956  0.85484562    -0.22000
C791        C  0.35199929  0.97318487  0.73338729    -0.23000
C792        C  0.35358344  0.97144218  0.76729512    -0.23000
C793        C  0.14105746  0.97880522  0.74173320    -0.23000
C794        C  0.14246409  0.97891686  0.77571656    -0.23000
C795        C  0.30667724  0.99354452  0.69327690    -0.18400
C796        C  0.18144316  0.99472351  0.69739254    -0.18400
C797        C  0.18648555  0.99454492  0.81681256    -0.18400
C798        C  0.31223823  0.98758165  0.81256774    -0.18400
H799        H  0.27423543  0.02625699  0.63668036     0.14500
H800        H  0.20613332  0.02609585  0.63860182     0.14500
H801        H  0.28531633  0.01653507  0.87345052     0.14500
H802        H  0.21705076  0.02057963  0.87559499     0.14500
H803        H  0.37312860  0.96666288  0.71650457     0.12800
H804        H  0.37616687  0.96333321  0.78172317     0.12800
H805        H  0.11888076  0.97324264  0.72689329     0.12800
H806        H  0.12158289  0.97336069  0.79225521     0.12800
H807        H  0.24618422  0.97679184  0.72554468     0.26100
H808        H  0.24843640  0.97598781  0.78340851     0.26100
C809        C  0.15389152  0.99539698  0.67163488    -0.06500
C810        C  0.15617610  0.97000301  0.64683322    -0.17300
C811        C  0.13146182  0.96936686  0.62164981     0.11000
C812        C  0.10351009  0.99463987  0.62111800    -0.06100
C813        C  0.09975299  0.52011351  0.64729358    -0.17400
C814        C  0.12507887  0.52166519  0.67190181     0.11000
S815        S  0.13665724  0.93516407  0.59145107    -0.32300
S816        S  0.11990953  0.55619491  0.70177464    -0.32300
H817        H  0.15537634  0.55965402  0.70682410     0.29000
H818        H  0.10111010  0.93157047  0.58690419     0.29000
H819        H  0.17746158  0.95046516  0.64715580     0.19600
H820        H  0.07792997  0.53897441  0.64746662     0.19600
C821        C  0.11052677  0.99602985  0.89500046    -0.06200
C822        C  0.10899936  0.52247081  0.87006093    -0.17300
C823        C  0.13418785  0.52345648  0.84529998     0.11000
C824        C  0.16047206  0.99644419  0.84403864    -0.06100
C825        C  0.16266218  0.97089313  0.86856095    -0.17400
C826        C  0.13836968  0.97063804  0.89417730     0.11000
S827        S  0.13026964  0.55857082  0.81613339    -0.32300
S828        S  0.14436903  0.93697847  0.92472133    -0.32300
H829        H  0.10920870  0.93422773  0.93159664     0.29000
H830        H  0.16602459  0.56102193  0.81182050     0.29000
H831        H  0.08757791  0.54184618  0.87022541     0.19600
H832        H  0.18345967  0.95085596  0.86760983     0.19600
C833        C  0.33250772  0.99526200  0.66619416    -0.06200
C834        C  0.35803400  0.51767256  0.66797914    -0.17300
C835        C  0.38231513  0.52145140  0.64289060     0.11000
C836        C  0.38154148  0.00154701  0.61521898    -0.06100
C837        C  0.35650998  0.97720139  0.61289522    -0.17400
C838        C  0.33246224  0.97340516  0.63820606     0.11000
S839        S  0.41294646  0.55378586  0.64882884    -0.32300
S840        S  0.30294319  0.93975027  0.63348030    -0.32300
H841        H  0.29907587  0.93309256  0.66741558     0.29000
H842        H  0.41373555  0.56321657  0.61527175     0.29000
H843        H  0.35869776  0.53378619  0.68986538     0.19600
H844        H  0.35653201  0.96002913  0.59172672     0.19600
C845        C  0.34036288  0.98603840  0.83784820    -0.06200
C846        C  0.36616547  0.50973853  0.83514751    -0.17300
C847        C  0.39145415  0.51164513  0.85983695     0.11000
C848        C  0.39035222  0.98924336  0.88855735    -0.06100
C849        C  0.36585748  0.96417683  0.88931421    -0.17400
C850        C  0.34187743  0.96150576  0.86364495     0.11000
S851        S  0.42266232  0.54399290  0.85649922    -0.32300
S852        S  0.31450955  0.92577552  0.86452683    -0.32300
H853        H  0.31196559  0.92244834  0.82994372     0.29000
H854        H  0.40917071  0.56022271  0.82777225     0.29000
H855        H  0.36509027  0.52800257  0.81490627     0.19600
H856        H  0.36608432  0.94589042  0.90955037     0.19600
C857        C  0.48500935  0.66237673  0.66694435    -0.06200
C858        C  0.01802447  0.64546966  0.65487677    -0.17300
C859        C  0.01892388  0.62190296  0.62858799     0.11000
C860        C  0.48612179  0.61388538  0.61474371    -0.06100
C861        C  0.45460417  0.62877039  0.62681728    -0.17400
C862        C  0.45366945  0.65216060  0.65337546     0.11000
S863        S  0.06060279  0.60448453  0.61448964    -0.32300
S864        S  0.41188271  0.66770850  0.66893382    -0.32300
H865        H  0.42223363  0.67272636  0.70179115     0.29000
H866        H  0.05189774  0.60461899  0.58073305     0.29000
H867        H  0.04208660  0.65219021  0.66602818     0.19600
H868        H  0.43057581  0.62159474  0.61600514     0.19600
C869        C  0.49100503  0.65664260  0.83973007    -0.06200
C870        C  0.46041822  0.65206894  0.85728908    -0.17300
C871        C  0.45948448  0.62755933  0.88252814     0.11000
C872        C  0.48947250  0.60617900  0.88950887    -0.06100
C873        C  0.02265169  0.61050190  0.87238298    -0.17400
C874        C  0.02412553  0.63606069  0.84812974     0.11000
S875        S  0.41946526  0.62544215  0.90507464    -0.32300
S876        S  0.06534547  0.64139337  0.82872546    -0.32300
H877        H  0.05999683  0.67696996  0.82280336     0.29000
H878        H  0.42467190  0.59111720  0.91564099     0.29000
H879        H  0.43736429  0.66834715  0.85178509     0.19600
H880        H  0.04595004  0.59494595  0.87865653     0.19600
C881        C  0.50450531  0.83917657  0.67184901    -0.06200
C882        C  0.47838352  0.86595708  0.67153694    -0.17300
C883        C  0.47650535  0.89077283  0.64620838     0.11000
C884        C  0.50133342  0.88887762  0.62046817    -0.06100
C885        C  0.02800756  0.86565298  0.62296387    -0.17400
C886        C  0.52957982  0.83757555  0.64639040     0.11000
S887        S  0.44062844  0.92291744  0.64558377    -0.32300
S888        S  0.06765597  0.81200096  0.65084987    -0.32300
H889        H  0.06709125  0.80821544  0.68544142     0.29000
H890        H  0.42858634  0.91682084  0.67776524     0.29000
H891        H  0.45879056  0.86667816  0.69068909     0.19600
H892        H  0.04928684  0.86615395  0.60558939     0.19600
C893        C  0.50455809  0.83511599  0.84412423    -0.06200
C894        C  0.03045948  0.83394342  0.86612340    -0.17300
C895        C  0.03178402  0.85794093  0.89195237     0.11000
C896        C  0.50699695  0.88524910  0.89464319    -0.06100
C897        C  0.48079921  0.88767012  0.87068290    -0.17400
C898        C  0.47889814  0.86266770  0.84594676     0.11000
S899        S  0.06917228  0.85482127  0.91852109    -0.32300
S900        S  0.44270156  0.86705367  0.81792704    -0.32300
H901        H  0.43952871  0.83149846  0.81362079     0.29000
H902        H  0.06949398  0.89030344  0.92494222     0.29000
H903        H  0.05133714  0.81420273  0.86325832     0.19600
H904        H  0.46092124  0.90861748  0.87193244     0.19600
O905        O  0.50721600  0.40107422  0.45077417    -0.75400
O906        O  0.50318967  0.44350222  0.41164770    -0.54300
C907        C  0.50605369  0.41172731  0.42054011     0.78300
O908        O  0.89745704  0.99906422  0.05830111    -0.60000
O909        O  0.93917190  0.00311994  0.09764237    -0.53000
C910        C  0.90805056  0.49904179  0.08774883     0.70400
O911        O  0.90250027  0.99087277  0.44607532    -0.74500
O912        O  0.94665026  0.99437501  0.40907551    -0.55100
C913        C  0.91471811  0.99155425  0.41636280     0.76400
O914        O  0.50518717  0.40410188  0.06401540    -0.59700
O915        O  0.49662225  0.44835894  0.10096925    -0.52800
C916        C  0.00152158  0.41463255  0.09275948     0.73000
Zr917      Zr  0.50414942  0.42644029  0.50654509     2.54700
O918        O  0.96748797  0.37664754  0.50909087    -0.80200
O919        O  0.55918031  0.39010289  0.01079710    -0.93700
Zr920      Zr  0.92355822  0.99648571  0.50302268     2.64700
O921        O  0.88502837  0.44798913  0.50567772    -0.98600
O922        O  0.87436275  0.03704050  0.99883883    -0.80700
O923        O  0.96519228  0.45799181  0.47291565    -0.84000
O924        O  0.96318434  0.45991287  0.03634542    -2.18700
O925        O  0.59054615  0.49785306  0.06430248    -0.67400
O926        O  0.54606233  0.50104313  0.10153808    -0.52000
C927        C  0.57837610  0.49844450  0.09404444     0.71300
O928        O  0.98798262  0.09444620  0.44750868    -0.60300
O929        O  0.99496100  0.05034824  0.41008766    -0.52300
C930        C  0.49251434  0.08245263  0.41842224     0.73100
O931        O  0.98649526  0.09699644  0.05854384    -0.71700
O932        O  0.99162569  0.05516780  0.09823280    -0.50400
C933        C  0.98850106  0.08682962  0.08883915     0.74500
O934        O  0.59468053  0.49853686  0.45196874    -0.67100
O935        O  0.55278923  0.49773448  0.41234425    -0.54300
C936        C  0.58422566  0.99736291  0.42184039     0.72900
Zr937      Zr  0.56874353  0.50264538  0.00741146     2.77500
O938        O  0.60489448  0.04819951  0.50907155    -0.97800
O939        O  0.62184911  0.46672735  0.50760696    -0.78600
Zr940      Zr  0.98905556  0.07058135  0.00344763     2.70100
O941        O  0.53089115  0.11493858  0.00393826    -0.79900
O942        O  0.93698548  0.11093756  0.50337085    -0.99000
Zr943      Zr  0.49806326  0.99733094  0.44208191     2.21500
Zr944      Zr  0.99405665  0.49973414  0.06792665     2.11100
O945        O  0.52864394  0.03716173  0.03746920    -2.47700
O946        O  0.53045995  0.03548260  0.47370767    -0.79700
O947        O  0.53607810  0.46528997  0.03936907    -0.71900
O948        O  0.95664318  0.03371319  0.47131279    -2.32800
O949        O  0.53790372  0.46312690  0.47507499    -2.29000
O950        O  0.95456651  0.03478352  0.03529723    -0.73600
H951        H  0.95013134  0.44567579  0.05062686     0.78400
H952        H  0.94166640  0.04679436  0.45620981     0.79500
H953        H  0.54124168  0.05182678  0.05172848     0.81700
H954        H  0.55386397  0.44909654  0.46158107     0.79300
H955        H  0.88354603  0.05873784  0.48808738     0.42300
H956        H  0.92426693  0.10483884  0.02071117     0.41300
H957        H  0.54921201  0.10585906  0.52168867     0.41000
H958        H  0.62669459  0.04238643  0.01084899     0.38900
H959        H  0.61384052  0.44239099  0.99868070     0.42000
H960        H  0.56657951  0.38850231  0.48745477     0.36800
H961        H  0.95193288  0.38004345  0.48978813     0.42900
H962        H  0.90236965  0.42564094  0.99285246     0.39400
H963        H  0.59917387  0.06312997  0.98906365     0.44300
H964        H  0.57382353  0.40258294  0.02618951     0.43000
H965        H  0.88586586  0.44031381  0.52903508     0.43100
H966        H  0.94777203  0.13375106  0.00898236     0.43500
N967        N  0.99504819  0.24875070  0.20426893    -0.36700
N968        N  0.98767114  0.19583466  0.25460935    -0.57300
N969        N  0.99860670  0.24664310  0.30585445    -0.36700
N970        N  0.00203110  0.30022497  0.25560464    -0.57300
C971        C  0.98427266  0.22282511  0.18527658     0.26900
C972        C  0.99236552  0.27788926  0.18583269     0.26900
C973        C  0.99004858  0.21977285  0.32475583     0.26900
C974        C  0.99586279  0.27519371  0.32515452     0.26900
C975        C  0.98750009  0.17559150  0.22735489     0.35500
C976        C  0.99019277  0.17434360  0.28092847     0.35500
C977        C  0.00939714  0.31948403  0.22898322     0.35500
C978        C  0.01021536  0.31853999  0.28263031     0.35500
C979        C  0.97505128  0.23556439  0.15425605    -0.22000
C980        C  0.97993796  0.27029631  0.15467028    -0.22000
C981        C  0.98252742  0.23134824  0.35664203    -0.22000
C982        C  0.98567296  0.26629306  0.35674481    -0.22000
C983        C  0.98879308  0.14115533  0.23646470    -0.23000
C984        C  0.99042565  0.14036354  0.27035984    -0.23000
C985        C  0.02220942  0.35023201  0.23916991    -0.23000
C986        C  0.02268642  0.34964927  0.27315554    -0.23000
C987        C  0.98472325  0.18759374  0.19434289    -0.18400
C988        C  0.00256691  0.31075468  0.19570731    -0.18400
C989        C  0.00414390  0.30875171  0.31573641    -0.18400
C990        C  0.99057372  0.18485943  0.31448380    -0.18400
H991        H  0.96591971  0.22131428  0.13335126     0.14500
H992        H  0.97527416  0.28785611  0.13415359     0.14500
H993        H  0.97555611  0.21640751  0.37787868     0.14500
H994        H  0.98144768  0.28309460  0.37795399     0.14500
H995        H  0.98825533  0.11888837  0.22039362     0.12800
H996        H  0.99135094  0.11734444  0.28545727     0.12800
H997        H  0.03003144  0.37108738  0.22373639     0.12800
H998        H  0.03090141  0.36996591  0.28908975     0.12800
H999        H  0.00737366  0.24589187  0.22694608     0.26100
H1000       H  0.00943485  0.24489997  0.28239172     0.26100
N1001       N  0.74474098  0.49156852  0.20449836    -0.36700
N1002       N  0.80029090  0.48666885  0.25271913    -0.57300
N1003       N  0.74970511  0.48784756  0.30536548    -0.36700
N1004       N  0.69395926  0.49532233  0.25704265    -0.57300
C1005       C  0.77190370  0.50009990  0.18589044     0.26900
C1006       C  0.71567282  0.50216564  0.18791486     0.26900
C1007       C  0.77894635  0.49271591  0.32257969     0.26900
C1008       C  0.72258145  0.49836256  0.32487324     0.26900
C1009       C  0.81879303  0.48085443  0.22469776     0.35500
C1010       C  0.82146604  0.47734936  0.27814931     0.35500
C1011       C  0.67320437  0.48936246  0.23106534     0.35500
C1012       C  0.67568138  0.48918999  0.28465178     0.35500
C1013       C  0.75991346  0.51662643  0.15731476    -0.22000
C1014       C  0.72436982  0.51770654  0.15849848    -0.22000
C1015       C  0.77028098  0.50655831  0.35338510    -0.22000
C1016       C  0.73471920  0.51014427  0.35481530    -0.22000
C1017       C  0.85187819  0.46750786  0.23229986    -0.23000
C1018       C  0.85355909  0.46523995  0.26623257    -0.23000
C1019       C  0.64157771  0.47936392  0.24216251    -0.23000
C1020       C  0.64311001  0.47934353  0.27619012    -0.23000
C1021       C  0.80702783  0.49055501  0.19274366    -0.18400
C1022       C  0.68169086  0.49588089  0.19774704    -0.18400
C1023       C  0.68729612  0.49492530  0.31725611    -0.18400
C1024       C  0.81308120  0.48305089  0.31185431    -0.18400
H1025       H  0.77519672  0.52619085  0.13731615     0.14500
H1026       H  0.70690706  0.52841391  0.13973175     0.14500
H1027       H  0.78774913  0.51306184  0.37295789     0.14500
H1028       H  0.71951702  0.51983735  0.37572137     0.14500
H1029       H  0.87280011  0.46078220  0.21523920     0.12800
H1030       H  0.87605495  0.45649026  0.28050265     0.12800
H1031       H  0.61954223  0.47336003  0.22732038     0.12800
H1032       H  0.62250530  0.47316492  0.29280181     0.12800
H1033       H  0.74591320  0.47556493  0.22515239     0.26100
H1034       H  0.74827145  0.47430583  0.28323981     0.26100
C1035       C  0.65413635  0.49664605  0.17194870    -0.06500
C1036       C  0.65501627  0.47002620  0.14834698    -0.17300
C1037       C  0.62991448  0.46925880  0.12346338     0.11000
C1038       C  0.60351805  0.49606578  0.12158499    -0.06100
C1039       C  0.60010494  0.01946318  0.14709022    -0.17400
C1040       C  0.62482747  0.02109142  0.17218457     0.11000
S1041       S  0.63220223  0.43271363  0.09571348    -0.32300
S1042       S  0.61782791  0.05459535  0.20290051    -0.32300
H1043       H  0.65292908  0.05895584  0.20908224     0.29000
H1044       H  0.59645163  0.43255628  0.08987926     0.29000
H1045       H  0.67525181  0.44945055  0.14959472     0.19600
H1046       H  0.57785743  0.03783561  0.14725446     0.19600
C1047       C  0.61113802  0.49610302  0.39546525    -0.06200
C1048       C  0.60869642  0.02198198  0.37124557    -0.17300
C1049       C  0.63374204  0.02286121  0.34634764     0.11000
C1050       C  0.66146803  0.49685391  0.34477739    -0.06100
C1051       C  0.66334686  0.47097074  0.36904699    -0.17400
C1052       C  0.63875297  0.47042596  0.39445491     0.11000
S1053       S  0.63076811  0.05871454  0.31801381    -0.32300
S1054       S  0.64383453  0.43581896  0.42414399    -0.32300
H1055       H  0.60863217  0.43434100  0.43153017     0.29000
H1056       H  0.66668515  0.06127946  0.31532248     0.29000
H1057       H  0.58798610  0.04210413  0.37218385     0.19600
H1058       H  0.68396766  0.45076521  0.36791432     0.19600
C1059       C  0.83280663  0.49227286  0.16550374    -0.06200
C1060       C  0.85846587  0.01821856  0.16942767    -0.17300
C1061       C  0.88261041  0.02184047  0.14414049     0.11000
C1062       C  0.88126602  0.49898435  0.11391239    -0.06100
C1063       C  0.85557616  0.47531273  0.11132618    -0.17400
C1064       C  0.83183486  0.47132941  0.13693992     0.11000
S1065       S  0.91405280  0.05329463  0.15033361    -0.32300
S1066       S  0.80155551  0.43843594  0.13215031    -0.32300
H1067       H  0.80080386  0.42951579  0.16585109     0.29000
H1068       H  0.91376632  0.06388114  0.11707623     0.29000
H1069       H  0.85983049  0.03383787  0.19158168     0.19600
H1070       H  0.85489425  0.45872228  0.08978078     0.19600
C1071       C  0.84154644  0.48149510  0.33681967    -0.06200
C1072       C  0.86517118  0.00811658  0.33611454    -0.17300
C1073       C  0.89030779  0.01070646  0.36077305     0.11000
C1074       C  0.89120149  0.48587522  0.38770861    -0.06100
C1075       C  0.86668874  0.46085297  0.38886391    -0.17400
C1076       C  0.84285035  0.45761244  0.36317204     0.11000
S1077       S  0.92083536  0.04367757  0.35725285    -0.32300
S1078       S  0.81529404  0.42207076  0.36485283    -0.32300
H1079       H  0.81251717  0.41815337  0.33035120     0.29000
H1080       H  0.91418025  0.05183028  0.32385407     0.29000
H1081       H  0.86391637  0.02624188  0.31575187     0.19600
H1082       H  0.86671582  0.44309441  0.40952106     0.19600
C1083       C  0.98438387  0.16153871  0.16733321    -0.06200
C1084       C  0.52061728  0.14594535  0.15541916    -0.17300
C1085       C  0.52128712  0.12231625  0.12923698     0.11000
C1086       C  0.98771509  0.11352821  0.11478975    -0.06100
C1087       C  0.95573586  0.12827659  0.12576473    -0.17400
C1088       C  0.95365074  0.15162858  0.15229781     0.11000
S1089       S  0.56280976  0.10525879  0.11441874    -0.32300
S1090       S  0.91117894  0.16786313  0.16546789    -0.32300
H1091       H  0.91997211  0.17569099  0.19819438     0.29000
H1092       H  0.55354828  0.10622384  0.08078953     0.29000
H1093       H  0.54477128  0.15300500  0.16614464     0.19600
H1094       H  0.93219267  0.12112193  0.11396764     0.19600
C1095       C  0.99087052  0.15781029  0.34052724    -0.06200
C1096       C  0.96046993  0.15356288  0.35849245    -0.17300
C1097       C  0.95958568  0.12920777  0.38386115     0.11000
C1098       C  0.98946491  0.10758424  0.39066555    -0.06100
C1099       C  0.52223311  0.11157616  0.37342972    -0.17400
C1100       C  0.52373414  0.13679733  0.34887927     0.11000
S1101       S  0.91957928  0.12733510  0.40645971    -0.32300
S1102       S  0.56482955  0.14151781  0.32898256    -0.32300
H1103       H  0.56008370  0.17727823  0.32378667     0.29000
H1104       H  0.92443671  0.09281446  0.41650769     0.29000
H1105       H  0.93740024  0.16983053  0.35301769     0.19600
H1106       H  0.54540593  0.09574172  0.37953017     0.19600
C1107       C  0.00414703  0.33817984  0.17000505    -0.06200
C1108       C  0.97825223  0.36520123  0.16999389    -0.17300
C1109       C  0.97680192  0.39051649  0.14518627     0.11000
C1110       C  0.00222705  0.38922960  0.12007041    -0.06100
C1111       C  0.52824918  0.36446419  0.12197667    -0.17400
C1112       C  0.02951735  0.33687622  0.14477637     0.11000
S1113       S  0.94100812  0.42275450  0.14455493    -0.32300
S1114       S  0.56587251  0.30776698  0.14663727    -0.32300
H1115       H  0.56711885  0.30299254  0.18110753     0.29000
H1116       H  0.92069153  0.40725279  0.16846282     0.29000
H1117       H  0.95866200  0.36590918  0.18914708     0.19600
H1118       H  0.54846812  0.36382482  0.10339501     0.19600
C1119       C  0.00486826  0.33544535  0.34218643    -0.06200
C1120       C  0.53028817  0.33366880  0.36628168    -0.17300
C1121       C  0.53220430  0.35808783  0.39162929     0.11000
C1122       C  0.00652821  0.38379819  0.39428741    -0.06100
C1123       C  0.98090467  0.38720133  0.36977781    -0.17400
C1124       C  0.97925305  0.36294437  0.34434978     0.11000
S1125       S  0.56835793  0.35310695  0.41956024    -0.32300
S1126       S  0.94312838  0.36785890  0.31622700    -0.32300
H1127       H  0.94012397  0.33246071  0.31066060     0.29000
H1128       H  0.57126725  0.38857932  0.42434734     0.29000
H1129       H  0.55005822  0.31268565  0.36449894     0.19600
H1130       H  0.96117940  0.40827814  0.37118174     0.19600
O1131       O  0.50817683  0.40045546  0.95152980    -0.75400
O1132       O  0.50381993  0.44299471  0.91246897    -0.54300
C1133       C  0.50685243  0.41117462  0.92126357     0.78300
O1134       O  0.89772636  0.99989819  0.55843038    -0.60000
O1135       O  0.93951107  0.00214521  0.59798362    -0.53000
C1136       C  0.90766942  0.50014459  0.58765352     0.70400
O1137       O  0.90246058  0.99043206  0.94643764    -0.74500
O1138       O  0.94700456  0.99232331  0.90966961    -0.55100
C1139       C  0.91493561  0.99029080  0.91680786     0.76400
O1140       O  0.50564536  0.40374927  0.56312682    -0.59700
O1141       O  0.49616177  0.44770760  0.60031884    -0.52800
C1142       C  0.00336843  0.41470399  0.59314141     0.73000
Zr1143     Zr  0.50560905  0.42629856  0.00722378     2.54700
O1144       O  0.96758073  0.37767028  0.00502047    -0.80200
O1145       O  0.55365113  0.38455823  0.50808309    -0.93700
Zr1146     Zr  0.92389515  0.99539168  0.00328544     2.64700
O1147       O  0.88884949  0.44422768  0.00485456    -0.98600
O1148       O  0.87391983  0.03780465  0.49728608    -0.80700
O1149       O  0.96590357  0.45790731  0.97241995    -0.84000
O1150       O  0.96267147  0.46019954  0.53651294    -2.18700
O1151       O  0.59046480  0.49697116  0.56354964    -0.67400
O1152       O  0.54627539  0.49999987  0.60105094    -0.52000
C1153       C  0.57853237  0.49723075  0.59336210     0.71300
O1154       O  0.98811808  0.09261705  0.94676789    -0.60300
O1155       O  0.99527622  0.04816021  0.90978073    -0.52300
C1156       C  0.49033977  0.08233693  0.91810630     0.73100
O1157       O  0.98577970  0.09807245  0.55860762    -0.71700
O1158       O  0.99015207  0.05591657  0.59803435    -0.50400
C1159       C  0.98740077  0.08769535  0.58883426     0.74500
O1160       O  0.59512870  0.50052821  0.95227494    -0.67100
O1161       O  0.55333169  0.49954683  0.91256452    -0.54300
C1162       C  0.58457413  0.99837549  0.92160863     0.72900
Zr1163     Zr  0.56810274  0.50273483  0.50695312     2.77500
O1164       O  0.60231829  0.05173701  0.01085056    -0.97800
O1165       O  0.62092697  0.46424741  0.00835382    -0.78600
Zr1166     Zr  0.98849268  0.07148409  0.50372539     2.70100
O1167       O  0.53111722  0.11490941  0.50615027    -0.79900
O1168       O  0.93884332  0.11158673  0.00197767    -0.99000
Zr1169     Zr  0.49869054  0.99725007  0.94219783     2.21500
Zr1170     Zr  0.99409690  0.49970087  0.56795976     2.11100
O1171       O  0.52842363  0.03633607  0.53767316    -2.47700
O1172       O  0.53072827  0.03601023  0.97344704    -0.79700
O1173       O  0.53559372  0.46492416  0.53859175    -0.71900
O1174       O  0.95695619  0.03255850  0.97151553    -2.32800
O1175       O  0.53893633  0.46299981  0.97523700    -2.29000
O1176       O  0.95420017  0.03547234  0.53549087    -0.73600
H1177       H  0.94956059  0.44609411  0.55088181     0.78400
H1178       H  0.94199889  0.04554304  0.95632977     0.79500
H1179       H  0.54100411  0.05067234  0.55224833     0.81700
H1180       H  0.55497600  0.44910978  0.96169037     0.79300
H1181       H  0.88376446  0.05771374  0.98886199     0.42300
H1182       H  0.94583208  0.13408161  0.50623101     0.41300
H1183       H  0.54481566  0.11041459  0.98365181     0.41000
H1184       H  0.59473663  0.06466819  0.49251963     0.38900
H1185       H  0.61503668  0.44362456  0.50087449     0.42000
H1186       H  0.55301151  0.36956822  0.02341598     0.36800
H1187       H  0.94822686  0.38489082  0.02002137     0.42900
H1188       H  0.89699466  0.42866567  0.49332939     0.39400
H1189       H  0.59983482  0.05946726  0.53068774     0.44300
H1190       H  0.54371642  0.36198937  0.50472815     0.43000
H1191       H  0.88966996  0.43681955  0.02829103     0.43100
H1192       H  0.92850152  0.11074448  0.48029358     0.43500
N1193       N  0.99883463  0.24928489  0.70493658    -0.36700
N1194       N  0.99170519  0.19528359  0.75467886    -0.57300
N1195       N  0.00165281  0.24546444  0.80633386    -0.36700
N1196       N  0.00547531  0.30000552  0.75665064    -0.57300
C1197       C  0.98784025  0.22357886  0.68578655     0.26900
C1198       C  0.99574662  0.27869490  0.68686326     0.26900
C1199       C  0.99319690  0.21827903  0.82495616     0.26900
C1200       C  0.99899524  0.27380402  0.82594326     0.26900
C1201       C  0.99228120  0.17554915  0.72708863     0.35500
C1202       C  0.99444453  0.17335476  0.78065603     0.35500
C1203       C  0.01254874  0.31986091  0.73035565     0.35500
C1204       C  0.01365292  0.31781981  0.78396144     0.35500
C1205       C  0.97811592  0.23672788  0.65504907    -0.22000
C1206       C  0.98291893  0.27146618  0.65578347    -0.22000
C1207       C  0.98577149  0.22947804  0.85695868    -0.22000
C1208       C  0.98889471  0.26444996  0.85743993    -0.22000
C1209       C  0.99459773  0.14091215  0.73560051    -0.23000
C1210       C  0.99583394  0.13952489  0.76950080    -0.23000
C1211       C  0.02518154  0.35052072  0.74099606    -0.23000
C1212       C  0.02595101  0.34920142  0.77495161    -0.23000
C1213       C  0.98856096  0.18818343  0.69436970    -0.18400
C1214       C  0.00577435  0.31155221  0.69699403    -0.18400
C1215       C  0.00739062  0.30752389  0.81692181    -0.18400
C1216       C  0.99383864  0.18339425  0.81436572    -0.18400
H1217       H  0.96872142  0.22272535  0.63410200     0.14500
H1218       H  0.97784407  0.28929759  0.63555103     0.14500
H1219       H  0.97898605  0.21423268  0.87805410     0.14500
H1220       H  0.98476215  0.28094900  0.87887024     0.14500
H1221       H  0.99480203  0.11889117  0.71914734     0.12800
H1222       H  0.99718144  0.11621389  0.78418609     0.12800
H1223       H  0.03273395  0.37175712  0.72590835     0.12800
H1224       H  0.03409033  0.36930759  0.79117949     0.12800
H1225       H  0.01149321  0.24609229  0.72742645     0.26100
H1226       H  0.01236390  0.24414242  0.78281937     0.26100
N1227       N  0.74460586  0.49056184  0.70417751    -0.36700
N1228       N  0.79981282  0.48865310  0.75258217    -0.57300
N1229       N  0.74892643  0.48850758  0.80494323    -0.36700
N1230       N  0.69366809  0.49283415  0.75644322    -0.57300
C1231       C  0.77145159  0.50049001  0.68590049     0.26900
C1232       C  0.71536783  0.50038548  0.68754638     0.26900
C1233       C  0.77790380  0.49442871  0.82213081     0.26900
C1234       C  0.72156816  0.49893271  0.82416722     0.26900
C1235       C  0.81838644  0.48231921  0.72470054     0.35500
C1236       C  0.82076271  0.47925692  0.77812818     0.35500
C1237       C  0.67294776  0.48679417  0.73050858     0.35500
C1238       C  0.67495166  0.48816596  0.78407551     0.35500
C1239       C  0.75909228  0.51716118  0.65755334    -0.22000
C1240       C  0.72364053  0.51683094  0.65846775    -0.22000
C1241       C  0.76888775  0.50870604  0.85264681    -0.22000
C1242       C  0.73332700  0.51160203  0.85391763    -0.22000
C1243       C  0.85128381  0.46861666  0.73249218    -0.23000
C1244       C  0.85278235  0.46665306  0.76645941    -0.23000
C1245       C  0.64089297  0.47800042  0.74167610    -0.23000
C1246       C  0.64209993  0.47906233  0.77570107    -0.23000
C1247       C  0.80670175  0.49175631  0.69270745    -0.18400
C1248       C  0.68159569  0.49316028  0.69720828    -0.18400
C1249       C  0.68640595  0.49498734  0.81648375    -0.18400
C1250       C  0.81214832  0.48513651  0.81170399    -0.18400
H1251       H  0.77410781  0.52771901  0.63787248     0.14500
H1252       H  0.70595171  0.52737099  0.63981198     0.14500
H1253       H  0.78614478  0.51598445  0.87210223     0.14500
H1254       H  0.71788332  0.52150818  0.87458451     0.14500
H1255       H  0.87214635  0.46135653  0.71552951     0.12800
H1256       H  0.87505379  0.45765459  0.78092272     0.12800
H1257       H  0.61864397  0.47256623  0.72687842     0.12800
H1258       H  0.62102607  0.47437566  0.79233196     0.12800
H1259       H  0.74624918  0.47424741  0.72461635     0.26100
H1260       H  0.74798045  0.47441929  0.78308757     0.26100
C1261       C  0.65414324  0.49417357  0.67139815    -0.06500
C1262       C  0.65585287  0.46858355  0.64677163    -0.17300
C1263       C  0.63109511  0.46843052  0.62156272     0.11000
C1264       C  0.60384098  0.49444598  0.62076632    -0.06100
C1265       C  0.60059143  0.01878867  0.64690356    -0.17400
C1266       C  0.62570449  0.02058764  0.67171495     0.11000
S1267       S  0.63513887  0.43387870  0.59167900    -0.32300
S1268       S  0.61980580  0.05502905  0.70158812    -0.32300
H1269       H  0.65511020  0.05847434  0.70757090     0.29000
H1270       H  0.59937160  0.43085135  0.58812075     0.29000
H1271       H  0.67662492  0.44850247  0.64729459     0.19600
H1272       H  0.57848878  0.03731150  0.64708313     0.19600
C1273       C  0.61158451  0.49882320  0.89575112    -0.06200
C1274       C  0.60932326  0.02201607  0.87046780    -0.17300
C1275       C  0.63460984  0.02238511  0.84569254     0.11000
C1276       C  0.66063086  0.49776742  0.84391296    -0.06100
C1277       C  0.66239742  0.47211441  0.86836243    -0.17400
C1278       C  0.63836445  0.47238774  0.89421523     0.11000
S1279       S  0.63224694  0.05799911  0.81705411    -0.32300
S1280       S  0.64288813  0.43773653  0.92384777    -0.32300
H1281       H  0.60739917  0.43568693  0.92956641     0.29000
H1282       H  0.66822874  0.05962300  0.81376693     0.29000
H1283       H  0.58867278  0.04222341  0.87097023     0.19600
H1284       H  0.68247072  0.45137975  0.86698406     0.19600
C1285       C  0.83241662  0.49360924  0.66541292    -0.06200
C1286       C  0.85895282  0.01575206  0.66985721    -0.17300
C1287       C  0.88299218  0.02014663  0.64465130     0.11000
C1288       C  0.88086561  0.50034894  0.61381172    -0.06100
C1289       C  0.85453010  0.47742913  0.61081665    -0.17400
C1290       C  0.83078049  0.47341124  0.63639014     0.11000
S1291       S  0.91421200  0.05176265  0.65145315    -0.32300
S1292       S  0.79970685  0.44132383  0.63087611    -0.32300
H1293       H  0.79834718  0.43189923  0.66441727     0.29000
H1294       H  0.91475499  0.06259502  0.61828597     0.29000
H1295       H  0.86011304  0.03106235  0.69222937     0.19600
H1296       H  0.85334383  0.46136618  0.58894886     0.19600
C1297       C  0.84035377  0.48364930  0.83686041    -0.06200
C1298       C  0.86537582  0.00758094  0.83672848    -0.17300
C1299       C  0.89056925  0.00992285  0.86140919     0.11000
C1300       C  0.89055107  0.48696276  0.88746259    -0.06100
C1301       C  0.86653378  0.46140310  0.88790881    -0.17400
C1302       C  0.84218943  0.45892589  0.86248592     0.11000
S1303       S  0.92171666  0.04233952  0.85796235    -0.32300
S1304       S  0.81451957  0.42339585  0.86370403    -0.32300
H1305       H  0.80971947  0.42102663  0.82929136     0.29000
H1306       H  0.91127228  0.05504298  0.82672482     0.29000
H1307       H  0.86396390  0.02592124  0.81655326     0.19600
H1308       H  0.86721108  0.44278300  0.90787351     0.19600
C1309       C  0.98683473  0.16259316  0.66713434    -0.06200
C1310       C  0.51721337  0.14571510  0.65646112    -0.17300
C1311       C  0.51845060  0.12172351  0.63061149     0.11000
C1312       C  0.98757895  0.11431375  0.61486338    -0.06100
C1313       C  0.95613203  0.12915423  0.62715137    -0.17400
C1314       C  0.95535792  0.15269023  0.65357943     0.11000
S1315       S  0.56037656  0.10423164  0.61734554    -0.32300
S1316       S  0.91352974  0.16883848  0.66870737    -0.32300
H1317       H  0.92398225  0.17961192  0.70009060     0.29000
H1318       H  0.55206428  0.10298809  0.58358858     0.29000
H1319       H  0.54111307  0.15281839  0.66767789     0.19600
H1320       H  0.93203258  0.12186290  0.61654832     0.19600
C1321       C  0.99326037  0.15593004  0.84010373    -0.06200
C1322       C  0.96244630  0.15189936  0.85757500    -0.17300
C1323       C  0.96074620  0.12725591  0.88267221     0.11000
C1324       C  0.99019737  0.10516819  0.88974231    -0.06100
C1325       C  0.51954492  0.11223753  0.87347771    -0.17400
C1326       C  0.52097002  0.13777522  0.84923494     0.11000
S1327       S  0.92035514  0.12561499  0.90471367    -0.32300
S1328       S  0.56248205  0.14312161  0.83027018    -0.32300
H1329       H  0.55605835  0.17721623  0.81935367     0.29000
H1330       H  0.92486680  0.09115306  0.91505135     0.29000
H1331       H  0.93970458  0.16858455  0.85197200     0.19600
H1332       H  0.54288085  0.09668785  0.87967836     0.19600
C1333       C  0.00739456  0.33920583  0.67145645    -0.06200
C1334       C  0.98204495  0.36672880  0.67193505    -0.17300
C1335       C  0.98062112  0.39212305  0.64717236     0.11000
C1336       C  0.00481263  0.38970672  0.62090636    -0.06100
C1337       C  0.52851197  0.36363763  0.62082605    -0.17400
C1338       C  0.03235529  0.33756417  0.64587178     0.11000
S1339       S  0.94656249  0.42625105  0.64838951    -0.32300
S1340       S  0.56605775  0.30647901  0.64464245    -0.32300
H1341       H  0.56687208  0.29970361  0.67879383     0.29000
H1342       H  0.92938256  0.41471853  0.67653624     0.29000
H1343       H  0.96296198  0.36785849  0.69155341     0.19600
H1344       H  0.54859875  0.36305857  0.60211837     0.19600
C1345       C  0.00822287  0.33398092  0.84360762    -0.06200
C1346       C  0.53150491  0.33295549  0.86702943    -0.17300
C1347       C  0.53276635  0.35703922  0.89283320     0.11000
C1348       C  0.01108663  0.38320397  0.89486644    -0.06100
C1349       C  0.98626831  0.38730399  0.86971474    -0.17400
C1350       C  0.98404307  0.36278399  0.84469330     0.11000
S1351       S  0.56742064  0.35105400  0.92236495    -0.32300
S1352       S  0.94906725  0.36933109  0.81551035    -0.32300
H1353       H  0.94397037  0.33417388  0.81082893     0.29000
H1354       H  0.57210198  0.38638174  0.92624771     0.29000
H1355       H  0.55068012  0.31138427  0.86605723     0.19600
H1356       H  0.96744510  0.40921362  0.87029529     0.19600
O1357       O  0.50507013  0.90096502  0.45039423    -0.75400
O1358       O  0.50099372  0.94370443  0.41155423    -0.54300
C1359       C  0.50380984  0.91184028  0.42021762     0.78300
O1360       O  0.89811929  0.49726350  0.05735669    -0.60000
O1361       O  0.93964374  0.49988679  0.09712052    -0.53000
C1362       C  0.90750833  0.00182579  0.08854431     0.70400
O1363       O  0.90296010  0.48778752  0.44550226    -0.74500
O1364       O  0.94744479  0.49169564  0.40899312    -0.55100
C1365       C  0.91544379  0.48862615  0.41588114     0.76400
O1366       O  0.50563300  0.90302620  0.06345301    -0.59700
O1367       O  0.49817568  0.94708443  0.10080160    -0.52800
C1368       C  0.99989447  0.91636584  0.09452459     0.73000
Zr1369     Zr  0.50224198  0.92559725  0.50649262     2.54700
O1370       O  0.96027125  0.88306323  0.50582395    -0.80200
O1371       O  0.55348369  0.88389490  0.00998039    -0.93700
Zr1372     Zr  0.92424038  0.49441304  0.50232057     2.64700
O1373       O  0.88675288  0.94814709  0.50558149    -0.98600
O1374       O  0.87413726  0.53399303  0.99641887    -0.80700
O1375       O  0.96399654  0.96029247  0.47290052    -0.84000
O1376       O  0.96202120  0.96123072  0.03769347    -2.18700
O1377       O  0.59117544  0.99631994  0.06382647    -0.67400
O1378       O  0.54697000  0.00020459  0.10129959    -0.52000
C1379       C  0.57921022  0.99734348  0.09362973     0.71300
O1380       O  0.99070190  0.59154800  0.44558882    -0.60300
O1381       O  0.99699559  0.54707170  0.40857328    -0.52300
C1382       C  0.49078550  0.58166480  0.41717226     0.73100
O1383       O  0.98514666  0.59647908  0.05786762    -0.71700
O1384       O  0.98992760  0.55456347  0.09751220    -0.50400
C1385       C  0.98704067  0.58630203  0.08818690     0.74500
O1386       O  0.59445605  0.99860817  0.45211545    -0.67100
O1387       O  0.55254455  0.99688946  0.41257570    -0.54300
C1388       C  0.58450586  0.49746308  0.42165637     0.72900
Zr1389     Zr  0.56887978  0.00103203  0.00722496     2.77500
O1390       O  0.59964942  0.55492486  0.50767500    -0.97800
O1391       O  0.61698036  0.95702411  0.50608861    -0.78600
Zr1392     Zr  0.98832352  0.56992252  0.00277968     2.70100
O1393       O  0.52671565  0.61780388  0.00582021    -0.79900
O1394       O  0.93894072  0.61109462  0.49953472    -0.99000
Zr1395     Zr  0.49831297  0.49727457  0.44172657     2.21500
Zr1396     Zr  0.99403470  0.00060596  0.06868511     2.11100
O1397       O  0.52761831  0.53842168  0.03713617    -2.47700
O1398       O  0.52935985  0.53681031  0.47309280    -0.79700
O1399       O  0.53593792  0.96386932  0.03913744    -0.71900
O1400       O  0.95720614  0.53164357  0.47052797    -2.32800
O1401       O  0.53675488  0.96160910  0.47491252    -2.29000
O1402       O  0.95419395  0.53346939  0.03442058    -0.73600
H1403       H  0.94873802  0.94738920  0.05215324     0.78400
H1404       H  0.94231190  0.54446071  0.45518050     0.79500
H1405       H  0.53966525  0.55337782  0.05155280     0.81700
H1406       H  0.55239621  0.94751036  0.46114737     0.79300
H1407       H  0.85660141  0.52715122  0.49628384     0.42300
H1408       H  0.91976039  0.59940549  0.01224243     0.41300
H1409       H  0.54201206  0.61488398  0.51652729     0.41000
H1410       H  0.59802709  0.56338588  0.03154111     0.38900
H1411       H  0.61241662  0.93912532  0.01008057     0.42000
H1412       H  0.56759141  0.89098270  0.49148402     0.36800
H1413       H  0.94409255  0.88954939  0.52409622     0.42900
H1414       H  0.88996274  0.93695346  0.02652406     0.39400
H1415       H  0.62686027  0.54364463  0.01042755     0.44300
H1416       H  0.54599562  0.86338260  0.99809538     0.43000
H1417       H  0.86326453  0.95892863  0.50957892     0.43100
H1418       H  0.94314669  0.63057193  0.00863136     0.43500
N1419       N  0.99470425  0.75001507  0.20429105    -0.36700
N1420       N  0.98981983  0.69531954  0.25363049    -0.57300
N1421       N  0.99874849  0.74572969  0.30629449    -0.36700
N1422       N  0.99873101  0.80117061  0.25707004    -0.57300
C1423       C  0.98746322  0.72358661  0.18411925     0.26900
C1424       C  0.99232120  0.77931273  0.18606418     0.26900
C1425       C  0.99332129  0.71762411  0.32490446     0.26900
C1426       C  0.99696837  0.77352936  0.32665812     0.26900
C1427       C  0.98844108  0.67572647  0.22600347     0.35500
C1428       C  0.99104060  0.67339870  0.27966316     0.35500
C1429       C  0.00408996  0.82173484  0.23082688     0.35500
C1430       C  0.00556671  0.81953810  0.28447564     0.35500
C1431       C  0.98098922  0.73621963  0.15247123    -0.22000
C1432       C  0.98392090  0.77128898  0.15372384    -0.22000
C1433       C  0.98904314  0.72763867  0.35772088    -0.22000
C1434       C  0.99092166  0.76280590  0.35875309    -0.22000
C1435       C  0.98770822  0.64125475  0.23462557    -0.23000
C1436       C  0.98929975  0.63979041  0.26852725    -0.23000
C1437       C  0.01412518  0.85343655  0.24163319    -0.23000
C1438       C  0.01507779  0.85203948  0.27556917    -0.23000
C1439       C  0.98722342  0.68822886  0.19302067    -0.18400
C1440       C  0.99909579  0.81288028  0.19722237    -0.18400
C1441       C  0.00186118  0.80818148  0.31754965    -0.18400
C1442       C  0.99285303  0.68304156  0.31346418    -0.18400
H1443       H  0.97470623  0.72170644  0.13065929     0.14500
H1444       H  0.98052253  0.78883034  0.13302644     0.14500
H1445       H  0.98481751  0.71143110  0.37888918     0.14500
H1446       H  0.98839774  0.77858572  0.38082331     0.14500
H1447       H  0.98610559  0.61937645  0.21821667     0.12800
H1448       H  0.98910481  0.61657334  0.28327113     0.12800
H1449       H  0.02021959  0.87528284  0.22663247     0.12800
H1450       H  0.02201373  0.87262371  0.29183913     0.12800
H1451       H  0.00403289  0.74770608  0.22815978     0.26100
H1452       H  0.00632236  0.74551118  0.28178371     0.26100
N1453       N  0.74431220  0.99391473  0.20524919    -0.36700
N1454       N  0.79972794  0.98953082  0.25374067    -0.57300
N1455       N  0.74902811  0.98835931  0.30606839    -0.36700
N1456       N  0.69349010  0.99583401  0.25739082    -0.57300
C1457       C  0.77137962  0.00306171  0.18688847     0.26900
C1458       C  0.71521419  0.00424713  0.18861760     0.26900
C1459       C  0.77801126  0.99285370  0.32376645     0.26900
C1460       C  0.72170270  0.99781741  0.32565810     0.26900
C1461       C  0.81821176  0.98375486  0.22568186     0.35500
C1462       C  0.82077260  0.97959639  0.27910807     0.35500
C1463       C  0.67292073  0.98990612  0.23129312     0.35500
C1464       C  0.67518081  0.98918390  0.28480625     0.35500
C1465       C  0.75930479  0.01976936  0.15842702    -0.22000
C1466       C  0.72379643  0.02024800  0.15939738    -0.22000
C1467       C  0.76898356  0.00512393  0.35506501    -0.22000
C1468       C  0.73345410  0.00830597  0.35623873    -0.22000
C1469       C  0.85113957  0.96994289  0.23324016    -0.23000
C1470       C  0.85277369  0.96735637  0.26714577    -0.23000
C1471       C  0.64142503  0.97931188  0.24213394    -0.23000
C1472       C  0.64276858  0.97908695  0.27612816    -0.23000
C1473       C  0.80649579  0.99355946  0.19370210    -0.18400
C1474       C  0.68136406  0.99716620  0.19815006    -0.18400
C1475       C  0.68656060  0.99462322  0.31748626    -0.18400
C1476       C  0.81226393  0.98431404  0.31290405    -0.18400
H1477       H  0.77452037  0.02972112  0.13857335     0.14500
H1478       H  0.70629552  0.03079543  0.14058592     0.14500
H1479       H  0.78616948  0.01090121  0.37511377     0.14500
H1480       H  0.71804078  0.01690473  0.37739884     0.14500
H1481       H  0.87195024  0.96291635  0.21615605     0.12800
H1482       H  0.87507679  0.95799279  0.28138529     0.12800
H1483       H  0.61952040  0.97319164  0.22716911     0.12800
H1484       H  0.62216245  0.97255159  0.29258282     0.12800
H1485       H  0.74567757  0.97753582  0.22562629     0.26100
H1486       H  0.74792091  0.97583524  0.28337977     0.26100
C1487       C  0.65410757  0.99735559  0.17213206    -0.06500
C1488       C  0.65779929  0.97269015  0.14671331    -0.17300
C1489       C  0.63324947  0.97133133  0.12146551     0.11000
C1490       C  0.60440306  0.99552465  0.12111091    -0.06100
C1491       C  0.60202986  0.52210690  0.14575439    -0.17400
C1492       C  0.62730040  0.52305494  0.17046875     0.11000
S1493       S  0.63936881  0.93712588  0.09137780    -0.32300
S1494       S  0.62447162  0.55915282  0.19867199    -0.32300
H1495       H  0.66027731  0.56072302  0.20315670     0.29000
H1496       H  0.60398779  0.93229616  0.08718835     0.29000
H1497       H  0.67985316  0.95403065  0.14681589     0.19600
H1498       H  0.58170093  0.54254492  0.14468584     0.19600
C1499       C  0.61080954  0.99631210  0.39568490    -0.06200
C1500       C  0.60920031  0.52189840  0.37116854    -0.17300
C1501       C  0.63451177  0.52314227  0.34654708     0.11000
C1502       C  0.66057154  0.99648109  0.34467768    -0.06100
C1503       C  0.66266709  0.97083872  0.36910129    -0.17400
C1504       C  0.63844724  0.97068801  0.39474853     0.11000
S1505       S  0.63177889  0.55962451  0.31896707    -0.32300
S1506       S  0.64420706  0.93677977  0.42504597    -0.32300
H1507       H  0.60897172  0.93415086  0.43170691     0.29000
H1508       H  0.66769897  0.56136778  0.31536447     0.29000
H1509       H  0.58846271  0.54199718  0.37211478     0.19600
H1510       H  0.68331386  0.95064918  0.36803202     0.19600
C1511       C  0.83222721  0.99524880  0.16638461    -0.06200
C1512       C  0.85797903  0.51645201  0.16781987    -0.17300
C1513       C  0.88205878  0.52007584  0.14246681     0.11000
C1514       C  0.88076788  0.00203790  0.11482509    -0.06100
C1515       C  0.85391295  0.97974940  0.11145636    -0.17400
C1516       C  0.83016555  0.97564364  0.13701135     0.11000
S1517       S  0.91219762  0.55295936  0.14768457    -0.32300
S1518       S  0.79856486  0.94419087  0.13097539    -0.32300
H1519       H  0.79729636  0.93413507  0.16434505     0.29000
H1520       H  0.91402672  0.56098900  0.11384034     0.29000
H1521       H  0.85854532  0.53297162  0.18943067     0.19600
H1522       H  0.85231908  0.96416329  0.08930857     0.19600
C1523       C  0.84072160  0.98311222  0.33782897    -0.06200
C1524       C  0.86667276  0.50580351  0.33507487    -0.17300
C1525       C  0.89211736  0.50755740  0.35961017     0.11000
C1526       C  0.89020162  0.98866408  0.38858371    -0.06100
C1527       C  0.86633151  0.96306265  0.38984709    -0.17400
C1528       C  0.84238648  0.95938755  0.36435964     0.11000
S1529       S  0.92465807  0.53843705  0.35509976    -0.32300
S1530       S  0.81487338  0.92383316  0.36698407    -0.32300
H1531       H  0.80946125  0.92064149  0.33274364     0.29000
H1532       H  0.91536089  0.54978460  0.32309959     0.29000
H1533       H  0.86596065  0.52374333  0.31457154     0.19600
H1534       H  0.86682265  0.94532178  0.41054101     0.19600
C1535       C  0.98595148  0.66248836  0.16573226    -0.06200
C1536       C  0.51700640  0.64753416  0.15422170    -0.17300
C1537       C  0.51778501  0.62424943  0.12783250     0.11000
C1538       C  0.98710980  0.61314204  0.11415299    -0.06100
C1539       C  0.95561489  0.62722206  0.12696519    -0.17400
C1540       C  0.95461152  0.65141855  0.15285058     0.11000
S1541       S  0.55951974  0.60820890  0.11271082    -0.32300
S1542       S  0.91256441  0.66597650  0.16874165    -0.32300
H1543       H  0.92211419  0.69448690  0.18707451     0.29000
H1544       H  0.54984600  0.60769879  0.07923646     0.29000
H1545       H  0.54112081  0.65523075  0.16453810     0.19600
H1546       H  0.93158836  0.61916886  0.11688282     0.19600
C1547       C  0.99337793  0.65514992  0.33881097    -0.06200
C1548       C  0.96272918  0.64947143  0.35583533    -0.17300
C1549       C  0.96196952  0.62451444  0.38071576     0.11000
C1550       C  0.99241409  0.60417133  0.38847750    -0.06100
C1551       C  0.52073317  0.61034239  0.37233528    -0.17400
C1552       C  0.52255921  0.63565800  0.34796910     0.11000
S1553       S  0.92140070  0.62042985  0.40183215    -0.32300
S1554       S  0.56382302  0.63965259  0.32811536    -0.32300
H1555       H  0.55893262  0.67488532  0.32047151     0.29000
H1556       H  0.92758382  0.58613008  0.41212980     0.29000
H1557       H  0.93932714  0.66506894  0.35000728     0.19600
H1558       H  0.54377447  0.59432870  0.37850943     0.19600
C1559       C  0.00062002  0.84069578  0.17199814    -0.06200
C1560       C  0.97073314  0.86217084  0.16604958    -0.17300
C1561       C  0.97018603  0.88761249  0.14149890     0.11000
C1562       C  0.99995865  0.89156975  0.12211640    -0.06100
C1563       C  0.52869100  0.86212303  0.12048772    -0.17400
C1564       C  0.03064209  0.84507905  0.15297986     0.11000
S1565       S  0.93008701  0.91241460  0.13397021    -0.32300
S1566       S  0.56484304  0.80378118  0.14347833    -0.32300
H1567       H  0.56580604  0.79622862  0.17747351     0.29000
H1568       H  0.94433881  0.94425212  0.13945577     0.29000
H1569       H  0.94753451  0.85869166  0.18030369     0.19600
H1570       H  0.54817699  0.86071016  0.10119057     0.19600
C1571       C  0.00229070  0.83450661  0.34447752    -0.06200
C1572       C  0.52817118  0.83312988  0.36679123    -0.17300
C1573       C  0.53006129  0.85797906  0.39181350     0.11000
C1574       C  0.00552148  0.88464638  0.39498764    -0.06100
C1575       C  0.97730301  0.88523416  0.37324594    -0.17400
C1576       C  0.97499601  0.86007895  0.34868156     0.11000
S1577       S  0.56611233  0.85343062  0.41998464    -0.32300
S1578       S  0.93623608  0.86151923  0.32397522    -0.32300
H1579       H  0.93547578  0.82559892  0.32018833     0.29000
H1580       H  0.56875115  0.88892859  0.42508651     0.29000
H1581       H  0.54769503  0.81187653  0.36560729     0.19600
H1582       H  0.95626036  0.90481187  0.37617576     0.19600
O1583       O  0.50751966  0.90060274  0.95145092    -0.75400
O1584       O  0.50268879  0.94313214  0.91240902    -0.54300
C1585       C  0.50595866  0.91132704  0.92127164     0.78300
O1586       O  0.89762750  0.49853693  0.55731076    -0.60000
O1587       O  0.93935322  0.50049722  0.59694830    -0.53000
C1588       C  0.90786698  0.00146295  0.58877004     0.70400
O1589       O  0.90321426  0.48776475  0.94508109    -0.74500
O1590       O  0.94733883  0.49210805  0.90820085    -0.55100
C1591       C  0.91535159  0.48899198  0.91535695     0.76400
O1592       O  0.50391188  0.90256384  0.56316393    -0.59700
O1593       O  0.49625353  0.94651037  0.60059783    -0.52800
C1594       C  0.99963157  0.91562161  0.59296715     0.73000
Zr1595     Zr  0.50413188  0.92590091  0.00703139     2.54700
O1596       O  0.96424056  0.87903872  0.00871937    -0.80200
O1597       O  0.55118920  0.88304581  0.50816696    -0.93700
Zr1598     Zr  0.92447224  0.49350142  0.00209259     2.64700
O1599       O  0.88780464  0.94642563  0.00383568    -0.98600
O1600       O  0.87813976  0.53944059  0.49528637    -0.80700
O1601       O  0.96451747  0.95891839  0.97373724    -0.84000
O1602       O  0.96176101  0.96214984  0.53708176    -2.18700
O1603       O  0.59092352  0.99571506  0.56374054    -0.67400
O1604       O  0.54670544  0.99907216  0.60122273    -0.52000
C1605       C  0.57900692  0.99645520  0.59357918     0.71300
O1606       O  0.99063650  0.59252062  0.94647663    -0.60300
O1607       O  0.99568514  0.54841604  0.90892185    -0.52300
C1608       C  0.49095956  0.58139477  0.91692833     0.73100
O1609       O  0.98568195  0.59658597  0.55743151    -0.71700
O1610       O  0.99047492  0.55466132  0.59707901    -0.50400
C1611       C  0.98759714  0.58637215  0.58773193     0.74500
O1612       O  0.59485102  0.99907192  0.95192259    -0.67100
O1613       O  0.55284076  0.99847838  0.91237255    -0.54300
C1614       C  0.58497155  0.49987581  0.92192582     0.72900
Zr1615     Zr  0.56820345  0.99973510  0.50719653     2.77500
O1616       O  0.60258270  0.55320592  0.00936307    -0.97800
O1617       O  0.62094814  0.96244477  0.00768606    -0.78600
Zr1618     Zr  0.98898904  0.56987200  0.50249089     2.70100
O1619       O  0.52411986  0.61954484  0.49937057    -0.79900
O1620       O  0.93701740  0.60911978  0.99746584    -0.99000
Zr1621     Zr  0.49916418  0.49717129  0.94201488     2.21500
Zr1622     Zr  0.99379170  0.00098719  0.56860096     2.11100
O1623       O  0.52745042  0.53869171  0.53712844    -2.47700
O1624       O  0.53025584  0.53684003  0.97323346    -0.79700
O1625       O  0.53470161  0.96287446  0.53890269    -0.71900
O1626       O  0.95704712  0.53141730  0.97060310    -2.32800
O1627       O  0.53806228  0.96218461  0.97513386    -2.29000
O1628       O  0.95465465  0.53383684  0.53446728    -0.73600
H1629       H  0.94853999  0.94822056  0.55149393     0.78400
H1630       H  0.94199376  0.54430442  0.95544808     0.79500
H1631       H  0.53967704  0.55355020  0.55150493     0.81700
H1632       H  0.55385372  0.94818483  0.96142932     0.79300
H1633       H  0.87810756  0.54670627  0.97568743     0.42300
H1634       H  0.94825147  0.63252738  0.49109325     0.41300
H1635       H  0.55009962  0.60622834  0.00345522     0.41000
H1636       H  0.60413529  0.55929029  0.53137981     0.38900
H1637       H  0.60826259  0.93653609  0.51703236     0.42000
H1638       H  0.57110171  0.89322454  0.99536170     0.36800
H1639       H  0.94273646  0.88920271  0.99848201     0.42900
H1640       H  0.89297672  0.93619804  0.52656840     0.39400
H1641       H  0.62261537  0.54769304  0.49833157     0.44300
H1642       H  0.54236567  0.86195069  0.49842499     0.43000
H1643       H  0.86384883  0.95686824  0.00266517     0.43100
H1644       H  0.92486220  0.60286843  0.48107553     0.43500
N1645       N  0.99605936  0.74906937  0.70431208    -0.36700
N1646       N  0.99084444  0.69509857  0.75417012    -0.57300
N1647       N  0.99946435  0.74635989  0.80618606    -0.36700
N1648       N  0.00087891  0.80085064  0.75645777    -0.57300
C1649       C  0.98793656  0.72250757  0.68458430     0.26900
C1650       C  0.99355659  0.77824340  0.68582277     0.26900
C1651       C  0.99269509  0.71872110  0.82490689     0.26900
C1652       C  0.99648845  0.77454343  0.82602916     0.26900
C1653       C  0.99069076  0.67500905  0.72677157     0.35500
C1654       C  0.99347269  0.67354351  0.78045399     0.35500
C1655       C  0.00568845  0.82129679  0.73000207     0.35500
C1656       C  0.00689163  0.81978975  0.78372412     0.35500
C1657       C  0.98084733  0.73492314  0.65298579    -0.22000
C1658       C  0.98421944  0.76994374  0.65380517    -0.22000
C1659       C  0.98611802  0.72945278  0.85722232    -0.22000
C1660       C  0.98811434  0.76457518  0.85783345    -0.22000
C1661       C  0.99222219  0.64052479  0.73579477    -0.23000
C1662       C  0.99401843  0.63959380  0.76971405    -0.23000
C1663       C  0.01469885  0.85346931  0.74056598    -0.23000
C1664       C  0.01549950  0.85250369  0.77453736    -0.23000
C1665       C  0.98810806  0.68713702  0.69369028    -0.18400
C1666       C  0.00057069  0.81203810  0.69646839    -0.18400
C1667       C  0.00245727  0.80888129  0.81683714    -0.18400
C1668       C  0.99371025  0.68387170  0.81412755    -0.18400
H1669       H  0.97397315  0.72030679  0.63143640     0.14500
H1670       H  0.98038321  0.78729642  0.63301835     0.14500
H1671       H  0.98048191  0.71376548  0.87838536     0.14500
H1672       H  0.98417784  0.78082979  0.87946419     0.14500
H1673       H  0.99191396  0.61829402  0.71965196     0.12800
H1674       H  0.99526650  0.61650037  0.78472302     0.12800
H1675       H  0.01986897  0.87548484  0.72540456     0.12800
H1676       H  0.02128710  0.87364994  0.79063419     0.12800
H1677       H  0.00599633  0.74690298  0.72800075     0.26100
H1678       H  0.00908596  0.74546780  0.78228000     0.26100
N1679       N  0.74499036  0.99105475  0.70508754    -0.36700
N1680       N  0.80039550  0.98588433  0.75363992    -0.57300
N1681       N  0.74984931  0.98621794  0.80608551    -0.36700
N1682       N  0.69431819  0.99389165  0.75725586    -0.57300
C1683       C  0.77225955  0.00021246  0.68699809     0.26900
C1684       C  0.71603055  0.00251640  0.68873529     0.26900
C1685       C  0.77884220  0.99166195  0.82345258     0.26900
C1686       C  0.72252871  0.99665798  0.82531908     0.26900
C1687       C  0.81904597  0.98032955  0.72566296     0.35500
C1688       C  0.82173272  0.97729322  0.77916770     0.35500
C1689       C  0.67353547  0.98844327  0.73117297     0.35500
C1690       C  0.67605210  0.98727241  0.78471465     0.35500
C1691       C  0.76046668  0.01807010  0.65906258    -0.22000
C1692       C  0.72491574  0.01929762  0.66005647    -0.22000
C1693       C  0.76981982  0.00554731  0.85415223    -0.22000
C1694       C  0.73427007  0.00875089  0.85530598    -0.22000
C1695       C  0.85236401  0.96774133  0.73343564    -0.23000
C1696       C  0.85408798  0.96592790  0.76739473    -0.23000
C1697       C  0.64198468  0.97805424  0.74205937    -0.23000
C1698       C  0.64352033  0.97746526  0.77607469    -0.23000
C1699       C  0.80730774  0.99019021  0.69369409    -0.18400
C1700       C  0.68197926  0.99590281  0.69805231    -0.18400
C1701       C  0.68738268  0.99320439  0.81733625    -0.18400
C1702       C  0.81313029  0.98285928  0.81283151    -0.18400
H1703       H  0.77589193  0.02850718  0.63962288     0.14500
H1704       H  0.70756508  0.03096256  0.64167741     0.14500
H1705       H  0.78704751  0.01253924  0.87374686     0.14500
H1706       H  0.71882008  0.01857886  0.87599970     0.14500
H1707       H  0.87348777  0.96143973  0.71648812     0.12800
H1708       H  0.87674822  0.95793995  0.78177405     0.12800
H1709       H  0.61992523  0.97234363  0.72712444     0.12800
H1710       H  0.62287763  0.97113844  0.79257875     0.12800
H1711       H  0.74607743  0.97418601  0.72511912     0.26100
H1712       H  0.74868800  0.97265141  0.78393761     0.26100
C1713       C  0.65469860  0.99647800  0.67187327    -0.06500
C1714       C  0.65792889  0.97159492  0.64661685    -0.17300
C1715       C  0.63314413  0.97020826  0.62150894     0.11000
C1716       C  0.60438835  0.99457180  0.62109328    -0.06100
C1717       C  0.60164467  0.51947153  0.64590553    -0.17400
C1718       C  0.62692173  0.52020282  0.67059607     0.11000
S1719       S  0.63898918  0.93573446  0.59167201    -0.32300
S1720       S  0.62375294  0.55574158  0.69948246    -0.32300
H1721       H  0.65951899  0.55767023  0.70400674     0.29000
H1722       H  0.60359221  0.93191626  0.58639164     0.29000
H1723       H  0.67981140  0.95273377  0.64674933     0.19600
H1724       H  0.58085757  0.53947629  0.64551570     0.19600
C1725       C  0.61122260  0.99684577  0.89541137    -0.06200
C1726       C  0.60990114  0.52466910  0.87146311    -0.17300
C1727       C  0.63442758  0.52483402  0.84595899     0.11000
C1728       C  0.66134065  0.99584874  0.84453023    -0.06100
C1729       C  0.66322101  0.97073591  0.86945502    -0.17400
C1730       C  0.63878781  0.97111857  0.89497034     0.11000
S1731       S  0.63095485  0.56046526  0.81725293    -0.32300
S1732       S  0.64405724  0.93758891  0.92570518    -0.32300
H1733       H  0.60872398  0.93507763  0.93188767     0.29000
H1734       H  0.66578014  0.55881232  0.80741245     0.29000
H1735       H  0.58967862  0.54524953  0.87274667     0.19600
H1736       H  0.68379946  0.95045848  0.86882788     0.19600
C1737       C  0.83305979  0.99242142  0.66647714    -0.06200
C1738       C  0.85817223  0.51719903  0.66808430    -0.17300
C1739       C  0.88220478  0.52089987  0.64267075     0.11000
C1740       C  0.88128452  0.00084693  0.61503005    -0.06100
C1741       C  0.85489848  0.97808954  0.61136132    -0.17400
C1742       C  0.83121895  0.97323374  0.63680424     0.11000
S1743       S  0.91287555  0.55333220  0.64802134    -0.32300
S1744       S  0.79982849  0.94169450  0.62990727    -0.32300
H1745       H  0.79548813  0.93294248  0.66331192     0.29000
H1746       H  0.91390336  0.56230191  0.61434043     0.29000
H1747       H  0.85918523  0.53326388  0.68997306     0.19600
H1748       H  0.85355902  0.96283793  0.58896807     0.19600
C1749       C  0.84141969  0.98206597  0.83790707    -0.06200
C1750       C  0.86466605  0.50879307  0.83600873    -0.17300
C1751       C  0.88999696  0.51043861  0.86068225     0.11000
C1752       C  0.89059772  0.98745967  0.88891033    -0.06100
C1753       C  0.86716352  0.96144711  0.88966693    -0.17400
C1754       C  0.84349797  0.95778964  0.86393690     0.11000
S1755       S  0.92026428  0.54372846  0.85845435    -0.32300
S1756       S  0.81707122  0.92134697  0.86529747    -0.32300
H1757       H  0.81352663  0.91811798  0.83080895     0.29000
H1758       H  0.90635065  0.56060174  0.83023243     0.29000
H1759       H  0.86331145  0.52751529  0.81615543     0.19600
H1760       H  0.86792660  0.94328857  0.91003141     0.19600
C1761       C  0.98664539  0.66101272  0.66660123    -0.06200
C1762       C  0.51643940  0.64779105  0.65451983    -0.17300
C1763       C  0.51728659  0.62368670  0.62875789     0.11000
C1764       C  0.98779958  0.61303874  0.61377519    -0.06100
C1765       C  0.95640488  0.62872603  0.62515651    -0.17400
C1766       C  0.95536075  0.65218354  0.65167310     0.11000
S1767       S  0.55892071  0.60620279  0.61472348    -0.32300
S1768       S  0.91324799  0.66945132  0.66499697    -0.32300
H1769       H  0.92290795  0.68329961  0.69541521     0.29000
H1770       H  0.55030619  0.60736298  0.58096356     0.29000
H1771       H  0.54053475  0.65531571  0.66501026     0.19600
H1772       H  0.93245672  0.62219232  0.61369105     0.19600
C1773       C  0.99385782  0.65653362  0.83994528    -0.06200
C1774       C  0.96292566  0.65108602  0.85656577    -0.17300
C1775       C  0.96169925  0.62646029  0.88168423     0.11000
C1776       C  0.99194028  0.60582356  0.88967319    -0.06100
C1777       C  0.51954967  0.60962452  0.87089371    -0.17400
C1778       C  0.52097715  0.63528406  0.84682941     0.11000
S1779       S  0.92073295  0.62336828  0.90247419    -0.32300
S1780       S  0.56195965  0.63995579  0.82667489    -0.32300
H1781       H  0.55720022  0.67555432  0.82062975     0.29000
H1782       H  0.92762677  0.59138407  0.91787783     0.29000
H1783       H  0.93966015  0.66668319  0.85026482     0.19600
H1784       H  0.54260738  0.59332878  0.87630262     0.19600
C1785       C  0.00166583  0.83973032  0.67082255    -0.06200
C1786       C  0.97356058  0.86435347  0.66811100    -0.17300
C1787       C  0.97255655  0.88964631  0.64322578     0.11000
C1788       C  0.99990263  0.89014881  0.62019273    -0.06100
C1789       C  0.52749642  0.86207211  0.62087791    -0.17400
C1790       C  0.02951243  0.84102842  0.64834429     0.11000
S1791       S  0.93506480  0.91948651  0.63986891    -0.32300
S1792       S  0.56444004  0.80449735  0.64484717    -0.32300
H1793       H  0.56728621  0.79986256  0.67926647     0.29000
H1794       H  0.92956756  0.92190486  0.67425542     0.29000
H1795       H  0.95200251  0.86332614  0.68507857     0.19600
H1796       H  0.54674556  0.86045574  0.60137225     0.19600
C1797       C  0.00271048  0.83522297  0.84373964    -0.06200
C1798       C  0.53108838  0.83297531  0.86781139    -0.17300
C1799       C  0.53253749  0.85761519  0.89302866     0.11000
C1800       C  0.00474947  0.88387955  0.89561916    -0.06100
C1801       C  0.97722084  0.88534459  0.87305369    -0.17400
C1802       C  0.97557585  0.86102426  0.84764175     0.11000
S1803       S  0.56826780  0.85304361  0.92152749    -0.32300
S1804       S  0.93793563  0.86398850  0.82136535    -0.32300
H1805       H  0.93682429  0.82834151  0.81590784     0.29000
H1806       H  0.57128272  0.88857898  0.92587637     0.29000
H1807       H  0.55093201  0.81202876  0.86646149     0.19600
H1808       H  0.95632144  0.90510622  0.87580103     0.19600
loop_ 
_geom_bond_atom_site_label_1 
_geom_bond_atom_site_label_2 
_geom_bond_distance 
_geom_bond_site_symmetry_2 
_ccdc_geom_bond_type 
O1          Zr13   2.456       .  S
O1            C3   1.290       .  A
O2         Zr491   2.409   1_455  S
O2            C3   1.284       .  A
C3         C1122   1.475       .  S
O4         Zr242   2.447       .  S
O4          C458   1.289   1_565  A
O5         Zr492   2.420       .  S
O5          C458   1.286       .  A
C6          O456   1.290       .  A
C6          O457   1.285       .  A
C6          C158   1.480       .  S
O7          Zr16   2.467       .  S
O7            C9   1.293       .  A
O8         Zr943   2.417       .  S
O8            C9   1.284       .  A
C9          C622   1.486       .  S
O10        Zr239   2.444       .  S
O10         C916   1.289       .  A
O11        Zr944   2.431       .  S
O11         C916   1.288   1_655  A
C12         O914   1.290       .  A
C12         O915   1.287       .  A
C12         C206   1.484       .  S
Zr13        O236   2.449       .  S
Zr13         O45   2.364       .  S
Zr13        O923   2.374   1_455  S
Zr13       O1150   2.380   1_455  S
Zr13        O269   2.371       .  S
Zr13        O918   2.435   1_455  S
Zr13        O241   2.435       .  S
O14        Zr917   2.434       .  S
O14          H57   0.990       .  S
O15        Zr239   2.435       .  S
O15          H60   0.990       .  S
O15         H282   0.989   1_554  S
Zr16        O230   2.454   1_565  S
Zr16         O44   2.371   1_565  S
Zr16        O698   2.374       .  S
Zr16        O471   2.370       .  S
Zr16        O272   2.380   1_565  S
Zr16        O469   2.435       .  S
Zr16        O244   2.435   1_565  S
O17        Zr468   2.436       .  S
O17          H61   0.990       .  S
O17         H284   0.990       .  S
O18        Zr242   2.435   1_546  S
O18         H277   0.990   1_556  S
O19        Zr917   2.371       .  S
O19        Zr468   2.368       .  S
O19       Zr1395   2.376       .  S
O20         Zr40   2.385       .  S
O20       Zr1143   2.375       .  S
O20        Zr694   2.369       .  S
O20          H47   0.966       .  S
O21         Zr33   2.442       .  S
O21          C23   1.288       .  A
O22        Zr944   2.418   1_455  S
O22          C23   1.285       .  A
C23         C134   1.473       .  S
O24        Zr262   2.447       .  S
O24         C930   1.288       .  A
O25        Zr943   2.423   1_545  S
O25         C930   1.285       .  A
C26         O928   1.287       .  A
C26         O929   1.286       .  A
C26        C1098   1.469       .  S
O27         Zr36   2.442       .  S
O27          C29   1.287       .  A
O28        Zr492   2.432       .  S
O28          C29   1.287       .  A
C29         C182   1.471       .  S
O30        Zr259   2.456       .  S
O30         C484   1.290       .  A
O31        Zr491   2.414   1_455  S
O31         C484   1.284       .  A
C32         O482   1.290       .  A
C32         O483   1.286       .  A
C32         C595   1.479       .  S
Zr33        O256   2.446   1_554  S
Zr33         O43   2.371       .  S
Zr33        O493   2.370       .  S
Zr33        O720   2.374   1_554  S
Zr33        O271   2.368   1_554  S
Zr33        O712   2.434       .  S
Zr33        O261   2.434       .  S
O34        Zr711   2.435       .  S
O34         H280   0.990       .  S
O34         H285   0.990       .  S
O35        Zr259   2.433       .  S
O35         H281   0.990       .  S
Zr36        O250   2.444   1_554  S
Zr36         O46   2.375       .  S
Zr36       O1172   2.376   1_554  S
Zr36        O945   2.374       .  S
Zr36        O270   2.373   1_554  S
Zr36        O941   2.434       .  S
Zr36        O264   2.435       .  S
O37        Zr940   2.434   1_455  S
O37         H279   0.990       .  S
O38        Zr262   2.436       .  S
O38         H278   0.990       .  S
O38         H288   0.990       .  S
Zr39        O454   2.428   1_655  S
Zr39        O912   2.413       .  S
Zr39        O929   2.425   1_565  S
Zr39        O483   2.422   1_655  S
Zr39         O42   2.381   1_665  S
Zr39       O1375   2.380       .  S
Zr39        O948   2.386   1_565  S
Zr39        O497   2.385   1_655  S
Zr40        O457   2.416       .  S
Zr40        O915   2.431       .  S
Zr40        O926   2.425       .  S
Zr40        O480   2.433       .  S
Zr40       O1397   2.380       .  S
Zr40        O947   2.379       .  S
Zr40        O498   2.384       .  S
O41        Zr485   2.373       .  S
O41        Zr940   2.377   1_455  S
O41       Zr1396   2.384   1_455  S
O41          H49   0.966       .  S
O42        Zr711   2.374       .  S
O42       Zr1166   2.380   1_455  S
O43        Zr239   2.368       .  S
O43        Zr944   2.383   1_455  S
O44        Zr262   2.373       .  S
O44        Zr943   2.382   1_545  S
O44          H48   0.964       .  S
O45        Zr259   2.373       .  S
O45        Zr491   2.382   1_455  S
O45          H50   0.966       .  S
O46        Zr242   2.382   1_545  S
O46        Zr492   2.383       .  S
H51         O244   0.990       .  S
H52         O264   0.990   1_556  S
H53         O263   0.990       .  S
H54         O260   0.990       .  S
H55         O261   0.990       .  S
H56         O241   0.990       .  S
H58         O243   0.990       .  S
H59         O260   0.990   1_556  S
H62         O264   0.990       .  S
N63          C68   1.356       .  A
N63          C67   1.354       .  A
N63          H95   1.036       .  S
N64          C71   1.352       .  A
N64          C72   1.353       .  A
N65          C70   1.354       .  A
N65          C69   1.353       .  A
N65          H96   1.035       .  S
N66          C73   1.353       .  A
N66          C74   1.352       .  A
C67          C75   1.388       .  A
C67          C83   1.420       .  A
C68          C84   1.420       .  A
C68          C76   1.386       .  A
C69          C77   1.389       .  A
C69          C86   1.419       .  A
C70          C85   1.417       .  A
C70          C78   1.387       .  A
C71          C83   1.416       .  A
C71          C79   1.387       .  A
C72          C86   1.417       .  A
C72          C80   1.387       .  A
C73          C81   1.386       .  A
C73          C84   1.415       .  A
C74          C82   1.386       .  A
C74          C85   1.415       .  A
C75          C76   1.375       .  A
C75          H87   1.082       .  S
C76          H88   1.082       .  S
C77          C78   1.372       .  A
C77          H89   1.081       .  S
C78          H90   1.082       .  S
C79          C80   1.372       .  A
C79          H91   1.082       .  S
C80          H92   1.082       .  S
C81          C82   1.373       .  A
C81          H93   1.082       .  S
C82          H94   1.082       .  S
C83         C179   1.488       .  S
C84         C203   1.495       .  S
C85         C215   1.490       .  S
C86         C191   1.488       .  S
N97         C102   1.351       .  A
N97         C101   1.351       .  A
N97         H129   1.040       .  S
N98         C105   1.351       .  A
N98         C106   1.352       .  A
N99         C104   1.353       .  A
N99         C103   1.354       .  A
N99         H130   1.040       .  S
N100        C107   1.351       .  A
N100        C108   1.349       .  A
C101        C109   1.388       .  A
C101        C117   1.413       .  A
C102        C118   1.412       .  A
C102        C110   1.387       .  A
C103        C111   1.387       .  A
C103        C120   1.417       .  A
C104        C119   1.417       .  A
C104        C112   1.387       .  A
C105        C117   1.414       .  A
C105        C113   1.386       .  A
C106        C120   1.413       .  A
C106        C114   1.385       .  A
C107        C115   1.386       .  A
C107        C118   1.411       .  A
C108        C116   1.387       .  A
C108        C119   1.413       .  A
C109        C110   1.376       .  A
C109        H121   1.082       .  S
C110        H122   1.083       .  S
C111        C112   1.378       .  A
C111        H123   1.082       .  S
C112        H124   1.082       .  S
C113        C114   1.375       .  A
C113        H125   1.082       .  S
C114        H126   1.082       .  S
C115        C116   1.375       .  A
C115        H127   1.082       .  S
C116        H128   1.082       .  S
C117        C155   1.489       .  S
C118        C131   1.487       .  S
C119        C146   1.490       .  S
C120        C167   1.497       .  S
C131        C132   1.403       .  A
C131        C588   1.413       .  A
C132        C133   1.398       .  A
C132        H141   1.084       .  S
C133        C134   1.412       .  A
C133        S137   1.804       .  S
C134        C587   1.403       .  A
C135        C136   1.400       .  A
C135        C586   1.403   1_545  A
C135        H142   1.082       .  S
C136        C583   1.414   1_545  A
C136        S138   1.805       .  S
S137        H140   1.407       .  S
S138        H139   1.405       .  S
C143        C484   1.476       .  S
C143        C148   1.413       .  A
C143        C596   1.403       .  A
C144        C145   1.402       .  A
C144        C595   1.405   1_545  A
C144        H153   1.084       .  S
C145        C598   1.413   1_545  A
C145        S149   1.805       .  S
C146        C147   1.404       .  A
C146        C597   1.414       .  A
C147        C148   1.400       .  A
C147        H154   1.084       .  S
C148        S150   1.802       .  S
S149        H152   1.407       .  S
S150        H151   1.404       .  S
C155        C160   1.415       .  A
C155        C608   1.402       .  A
C156        C157   1.398       .  A
C156        C607   1.403   1_545  A
C156        H165   1.084       .  S
C157        C610   1.414       .  A
C157        S161   1.801       .  S
C158        C159   1.404       .  A
C158        C609   1.415       .  A
C159        C160   1.399       .  A
C159        H166   1.084       .  S
C160        S162   1.804       .  S
S161        H164   1.406       .  S
S162        H163   1.406       .  S
C167        C172   1.413       .  A
C167        C620   1.403       .  A
C168        C169   1.404       .  A
C168        C619   1.402   1_545  A
C168        H177   1.083       .  S
C169        C622   1.417   1_545  A
C169        S173   1.807       .  S
C170        C461   1.489       .  S
C170        C171   1.406       .  A
C170        C621   1.416       .  A
C171        C172   1.404       .  A
C171        H178   1.084       .  S
C172        S174   1.803       .  S
S173        H176   1.407       .  S
S174        H175   1.407       .  S
C179        C184   1.416       .  A
C179       C1084   1.403       .  A
C180        C181   1.398       .  A
C180       C1083   1.402   1_455  A
C180        H189   1.084       .  S
C181       C1086   1.410   1_455  A
C181        S185   1.801       .  S
C182        C183   1.400       .  A
C182       C1085   1.410       .  A
C183        C184   1.401       .  A
C183        H190   1.083       .  S
C184        S186   1.806       .  S
S185        H188   1.406       .  S
S186        H187   1.401       .  S
C191        C192   1.403       .  A
C191       C1100   1.413       .  A
C192        C193   1.399       .  A
C192        H201   1.084       .  S
C193        C194   1.413       .  A
C193        S197   1.805       .  S
C194        C930   1.470       .  S
C194       C1099   1.402       .  A
C195        C196   1.399       .  A
C195       C1098   1.401   1_455  A
C195        H202   1.084       .  S
C196       C1095   1.414   1_455  A
C196        S198   1.805       .  S
S197        H200   1.403       .  S
S198        H199   1.405       .  S
C203        C204   1.404       .  A
C203        C208   1.414       .  A
C204        C205   1.402       .  A
C204        H213   1.084       .  S
C205        C206   1.414       .  A
C205        S209   1.800       .  S
C206       C1111   1.405       .  A
C207       C1110   1.404       .  A
C207       C1112   1.401       .  A
C207        H214   1.084       .  S
C208       C1111   1.402       .  A
C208       S1114   1.803       .  S
S209        H212   1.407       .  S
S210       C1112   1.805       .  S
S210        H211   1.404       .  S
C215        C220   1.413       .  A
C215       C1120   1.404       .  A
C216        C217   1.401       .  A
C216       C1119   1.405       .  A
C216        H225   1.084       .  S
C217       C1122   1.413       .  A
C217        S221   1.804       .  S
C218        C907   1.477       .  S
C218        C219   1.404       .  A
C218       C1121   1.413       .  A
C219        C220   1.398       .  A
C219        H226   1.084       .  S
C220        S222   1.805       .  S
S221        H224   1.405       .  S
S222        H223   1.406       .  S
O227       Zr239   2.447   1_556  S
O227        C229   1.289       .  A
O228       Zr717   2.421   1_455  S
O228        C229   1.287       .  A
C229       C1348   1.477       .  S
O230        C684   1.291       .  A
O231       Zr718   2.413   1_545  S
O231        C684   1.285       .  A
C232        O682   1.290       .  A
C232        O683   1.284       .  A
C232        C384   1.476       .  S
O233       Zr242   2.462   1_556  S
O233        C235   1.292       .  A
O234      Zr1169   2.417       .  S
O234        C235   1.285       .  A
C235        C848   1.485       .  S
O236       C1142   1.290       .  A
O237      Zr1170   2.428       .  S
O237       C1142   1.287   1_655  A
C238       O1140   1.290       .  A
C238       O1141   1.289       .  A
C238        C432   1.486       .  S
Zr239      O1149   2.377   1_454  S
Zr239       O924   2.378   1_455  S
Zr239       O271   2.369   1_554  S
Zr239      O1144   2.434   1_455  S
O240      Zr1143   2.434       .  S
O240        H283   0.990   1_554  S
O241        H286   0.990       .  S
Zr242       O472   2.373       .  S
Zr242       O697   2.368   1_554  S
Zr242       O270   2.372   1_564  S
Zr242       O695   2.438       .  S
O243       Zr694   2.437       .  S
O243        H287   0.990       .  S
O245      Zr1143   2.377   1_556  S
O245       Zr694   2.368   1_556  S
O245      Zr1621   2.381       .  S
O246       Zr917   2.373       .  S
O246       Zr468   2.373       .  S
O246       Zr266   2.386       .  S
O246        H273   0.966       .  S
O247       Zr259   2.454       .  S
O247        C249   1.290       .  A
O248      Zr1170   2.419   1_455  S
O248        C249   1.285       .  A
C249        C360   1.480       .  S
O250       C1156   1.287       .  A
O251      Zr1169   2.427   1_545  S
O251       C1156   1.286       .  A
C252       O1154   1.288       .  A
C252       O1155   1.285       .  A
C252       C1324   1.470       .  S
O253       Zr262   2.441       .  S
O253        C255   1.287       .  A
O254       Zr718   2.435   1_545  S
O254        C255   1.288       .  A
C255        C408   1.473       .  S
O256        C710   1.288       .  A
O257       Zr717   2.422   1_455  S
O257        C710   1.286       .  A
C258        O708   1.290       .  A
C258        O709   1.285       .  A
C258        C821   1.477       .  S
Zr259       O719   2.370       .  S
Zr259       O494   2.378       .  S
Zr259       O269   2.372       .  S
Zr259       O486   2.435       .  S
O260       Zr485   2.435       .  S
Zr262       O946   2.377       .  S
Zr262      O1171   2.375       .  S
Zr262       O272   2.373       .  S
Zr262      O1167   2.435       .  S
O263      Zr1166   2.434   1_455  S
Zr265       O680   2.415   1_655  S
Zr265      O1138   2.413       .  S
Zr265      O1155   2.419   1_565  S
Zr265       O709   2.420   1_655  S
Zr265      O1601   2.378       .  S
Zr265       O268   2.379   1_665  S
Zr265      O1174   2.382   1_565  S
Zr265       O723   2.383   1_655  S
Zr266       O683   2.412       .  S
Zr266      O1141   2.436       .  S
Zr266      O1152   2.425       .  S
Zr266       O706   2.435       .  S
Zr266      O1623   2.385       .  S
Zr266      O1173   2.382       .  S
Zr266       O724   2.383       .  S
O267       Zr711   2.374       .  S
O267      Zr1166   2.379   1_455  S
O267      Zr1622   2.383   1_455  S
O267        H275   0.965       .  S
O268       Zr485   2.374   1_556  S
O268       Zr940   2.378   1_456  S
O269      Zr1170   2.382   1_455  S
O270      Zr1169   2.381   1_545  S
O270        H274   0.964       .  S
O271       Zr717   2.384   1_455  S
O271        H276   0.966       .  S
O272       Zr718   2.385   1_545  S
N289        C294   1.356       .  A
N289        C293   1.354       .  A
N289        H321   1.036       .  S
N290        C297   1.353       .  A
N290        C298   1.353       .  A
N291        C296   1.355       .  A
N291        C295   1.355       .  A
N291        H322   1.036       .  S
N292        C299   1.353       .  A
N292        C300   1.353       .  A
C293        C301   1.387       .  A
C293        C309   1.418       .  A
C294        C310   1.421       .  A
C294        C302   1.387       .  A
C295        C303   1.387       .  A
C295        C312   1.419       .  A
C296        C311   1.422       .  A
C296        C304   1.388       .  A
C297        C309   1.416       .  A
C297        C305   1.387       .  A
C298        C312   1.417       .  A
C298        C306   1.387       .  A
C299        C307   1.386       .  A
C299        C310   1.418       .  A
C300        C308   1.387       .  A
C300        C311   1.419       .  A
C301        C302   1.376       .  A
C301        H313   1.082       .  S
C302        H314   1.082       .  S
C303        C304   1.373       .  A
C303        H315   1.081       .  S
C304        H316   1.082       .  S
C305        C306   1.372       .  A
C305        H317   1.082       .  S
C306        H318   1.082       .  S
C307        C308   1.373       .  A
C307        H319   1.082       .  S
C308        H320   1.082       .  S
C309        C405   1.488       .  S
C310        C429   1.496       .  S
C311        C441   1.497       .  S
C312        C417   1.491       .  S
N323        C328   1.353       .  A
N323        C327   1.352       .  A
N323        H355   1.040       .  S
N324        C331   1.350       .  A
N324        C332   1.352       .  A
N325        C330   1.353       .  A
N325        C329   1.354       .  A
N325        H356   1.040       .  S
N326        C333   1.352       .  A
N326        C334   1.351       .  A
C327        C335   1.388       .  A
C327        C343   1.415       .  A
C328        C344   1.413       .  A
C328        C336   1.386       .  A
C329        C337   1.387       .  A
C329        C346   1.416       .  A
C330        C345   1.416       .  A
C330        C338   1.387       .  A
C331        C343   1.414       .  A
C331        C339   1.387       .  A
C332        C346   1.412       .  A
C332        C340   1.385       .  A
C333        C341   1.385       .  A
C333        C344   1.413       .  A
C334        C342   1.387       .  A
C334        C345   1.414       .  A
C335        C336   1.376       .  A
C335        H347   1.082       .  S
C336        H348   1.082       .  S
C337        C338   1.377       .  A
C337        H349   1.082       .  S
C338        H350   1.082       .  S
C339        C340   1.374       .  A
C339        H351   1.082       .  S
C340        H352   1.082       .  S
C341        C342   1.375       .  A
C341        H353   1.082       .  S
C342        H354   1.082       .  S
C343        C381   1.489       .  S
C344        C357   1.492       .  S
C345        C372   1.491       .  S
C346        C393   1.493       .  S
C357        C358   1.403       .  A
C357        C814   1.415       .  A
C358        C359   1.399       .  A
C358        H367   1.084       .  S
C359        C360   1.413       .  A
C359        S363   1.804       .  S
C360        C813   1.405       .  A
C361        C812   1.404   1_545  A
C361        C362   1.401       .  A
C361        H368   1.083       .  S
C362        C809   1.414   1_545  A
C362        S364   1.805       .  S
S363        H366   1.407       .  S
S364        H365   1.406       .  S
C369        C710   1.475       .  S
C369        C822   1.403       .  A
C369        C374   1.413       .  A
C370        C821   1.405   1_545  A
C370        C371   1.401       .  A
C370        H379   1.083       .  S
C371        C824   1.413   1_545  A
C371        S375   1.804       .  S
C372        C823   1.414       .  A
C372        C373   1.404       .  A
C373        C374   1.399       .  A
C373        H380   1.084       .  S
C374        S376   1.802       .  S
S375        H378   1.407       .  S
S376        H377   1.405       .  S
C381        C834   1.403       .  A
C381        C386   1.413       .  A
C382        C833   1.402   1_545  A
C382        C383   1.398       .  A
C382        H391   1.084       .  S
C383        C836   1.415       .  A
C383        S387   1.800       .  S
C384        C835   1.415       .  A
C384        C385   1.403       .  A
C385        C386   1.397       .  A
C385        H392   1.084       .  S
C386        S388   1.803       .  S
S387        H390   1.405       .  S
S388        H389   1.406       .  S
C393        C846   1.403       .  A
C393        C398   1.412       .  A
C394        C845   1.402   1_545  A
C394        C395   1.403       .  A
C394        H403   1.083       .  S
C395        C848   1.417   1_545  A
C395        S399   1.807       .  S
C396        C687   1.486       .  S
C396        C847   1.417       .  A
C396        C397   1.405       .  A
C397        C398   1.402       .  A
C397        H404   1.084       .  S
C398        S400   1.803       .  S
S399        H402   1.407       .  S
S400        H401   1.407       .  S
C405       C1310   1.401       .  A
C405        C410   1.413       .  A
C406       C1309   1.401   1_455  A
C406        C407   1.397       .  A
C406        H415   1.084       .  S
C407       C1312   1.411   1_455  A
C407        S411   1.802       .  S
C408       C1311   1.411       .  A
C408        C409   1.403       .  A
C409        C410   1.402       .  A
C409        H416   1.083       .  S
C410        S412   1.802       .  S
S411        H414   1.404       .  S
S412        H413   1.405       .  S
C417        C418   1.405       .  A
C417       C1326   1.415       .  A
C418        C419   1.401       .  A
C418        H427   1.084       .  S
C419        C420   1.414       .  A
C419        S423   1.806       .  S
C420       C1156   1.472       .  S
C420       C1325   1.401       .  A
C421       C1324   1.401   1_455  A
C421        C422   1.399       .  A
C421        H428   1.084       .  S
C422       C1321   1.416   1_455  A
C422        S424   1.806       .  S
S423        H426   1.403       .  S
S424        H425   1.404       .  S
C429        C430   1.405       .  A
C429        C434   1.414       .  A
C430        C431   1.407       .  A
C430        H439   1.083       .  S
C431        C432   1.414       .  A
C431        S435   1.808       .  S
C432       C1337   1.405       .  A
C433       C1336   1.405       .  A
C433       C1338   1.402       .  A
C433        H440   1.084       .  S
C434       C1337   1.402       .  A
C434       S1340   1.804       .  S
S435        H438   1.407       .  S
S436       C1338   1.804       .  S
S436        H437   1.406       .  S
C441       C1346   1.406       .  A
C441        C446   1.415       .  A
C442       C1345   1.406       .  A
C442        C443   1.402       .  A
C442        H451   1.084       .  S
C443       C1348   1.415       .  A
C443        S447   1.802       .  S
C444       C1133   1.481       .  S
C444       C1347   1.413       .  A
C444        C445   1.405       .  A
C445        C446   1.400       .  A
C445        H452   1.084       .  S
C446        S448   1.804       .  S
S447        H450   1.405       .  S
S448        H449   1.406       .  S
O453       Zr465   2.449       .  S
O453        C455   1.289       .  A
O454        C455   1.287       .  A
C455       C1574   1.478       .  S
O456       Zr694   2.449       .  S
C458        C610   1.478       .  S
O459       Zr468   2.464       .  S
O459        C461   1.292       .  A
O460      Zr1395   2.425       .  S
O460        C461   1.286       .  A
O462       Zr691   2.453       .  S
O462       C1368   1.290   1_455  A
O463      Zr1396   2.420   1_565  S
O463       C1368   1.285       .  A
C464       O1366   1.289       .  A
C464       O1367   1.288       .  A
C464        C658   1.483       .  S
Zr465       O688   2.446       .  S
Zr465      O1375   2.372   1_455  S
Zr465      O1602   2.374   1_455  S
Zr465       O721   2.372       .  S
Zr465       O497   2.374       .  S
Zr465      O1370   2.434   1_455  S
Zr465       O693   2.435       .  S
O466      Zr1369   2.435       .  S
O466        H509   0.990       .  S
O467       Zr691   2.435       .  S
O467        H734   0.990   1_554  S
O467        H512   0.990       .  S
Zr468       O682   2.447       .  S
Zr468       O496   2.373       .  S
Zr468       O724   2.381       .  S
Zr468       O696   2.436       .  S
O469        H736   0.990       .  S
O469        H513   0.990       .  S
O470       Zr694   2.434   1_556  S
O470        H729   0.990       .  S
O471      Zr1369   2.375       .  S
O471       Zr943   2.383       .  S
O472      Zr1595   2.374       .  S
O472       Zr492   2.387   1_565  S
O472        H499   0.966       .  S
O473       Zr485   2.450   1_565  S
O473        C475   1.290       .  A
O474      Zr1396   2.420   1_465  S
O474        C475   1.285       .  A
C475        C586   1.476       .  S
O476       Zr714   2.443       .  S
O476       C1382   1.288       .  A
O477      Zr1395   2.412       .  S
O477       C1382   1.283       .  A
C478       O1380   1.289       .  A
C478       O1381   1.285       .  A
C478       C1550   1.473       .  S
O479       Zr488   2.444       .  S
O479        C481   1.287       .  A
O480        C481   1.287       .  A
C481        C634   1.472       .  S
O482       Zr711   2.454   1_565  S
Zr485       O708   2.456   1_544  S
Zr485       O723   2.372   1_544  S
Zr485       O495   2.372   1_545  S
Zr485       O713   2.434   1_545  S
O486        H732   0.990       .  S
O486        H737   0.990       .  S
O487       Zr711   2.433   1_565  S
O487        H733   0.990       .  S
Zr488       O702   2.447   1_554  S
Zr488      O1624   2.376   1_554  S
Zr488      O1397   2.376       .  S
Zr488       O498   2.376       .  S
Zr488       O722   2.372   1_554  S
Zr488      O1393   2.435       .  S
Zr488       O716   2.434   1_554  S
O489      Zr1392   2.434   1_455  S
O489        H731   0.990   1_554  S
O490       Zr714   2.436       .  S
O490        H730   0.990       .  S
O490        H740   0.990       .  S
Zr491      O1364   2.419       .  S
Zr491      O1381   2.420       .  S
Zr491       O923   2.379       .  S
Zr491       O494   2.382   1_655  S
Zr491      O1400   2.379       .  S
Zr492      O1367   2.432   1_545  S
Zr492      O1378   2.419       .  S
Zr492       O945   2.380       .  S
Zr492      O1399   2.382   1_545  S
O493      Zr1392   2.372   1_455  S
O493       Zr944   2.382   1_455  S
O493        H501   0.965       .  S
O494      Zr1618   2.378   1_455  S
O495       Zr691   2.368       .  S
O495      Zr1396   2.381   1_465  S
O496       Zr714   2.375       .  S
O496      Zr1395   2.383       .  S
O496        H500   0.964       .  S
O497       Zr711   2.371   1_565  S
O497        H502   0.965       .  S
O498       Zr694   2.385       .  S
H503        O696   0.990       .  S
H504        O716   0.990   1_554  S
H505        O715   0.990       .  S
H506        O712   0.990   1_556  S
H507        O713   0.990       .  S
H508        O693   0.990       .  S
H510        O695   0.990       .  S
H511        O712   0.990       .  S
H514        O716   0.990   1_554  S
N515        C520   1.354       .  A
N515        C519   1.354       .  A
N515        H547   1.037       .  S
N516        C523   1.352       .  A
N516        C524   1.352       .  A
N517        C522   1.355       .  A
N517        C521   1.354       .  A
N517        H548   1.036       .  S
N518        C525   1.353       .  A
N518        C526   1.353       .  A
C519        C527   1.387       .  A
C519        C535   1.416       .  A
C520        C536   1.418       .  A
C520        C528   1.387       .  A
C521        C529   1.389       .  A
C521        C538   1.419       .  A
C522        C537   1.419       .  A
C522        C530   1.387       .  A
C523        C535   1.414       .  A
C523        C531   1.386       .  A
C524        C538   1.415       .  A
C524        C532   1.387       .  A
C525        C533   1.386       .  A
C525        C536   1.416       .  A
C526        C534   1.386       .  A
C526        C537   1.417       .  A
C527        C528   1.374       .  A
C527        H539   1.082       .  S
C528        H540   1.082       .  S
C529        C530   1.374       .  A
C529        H541   1.081       .  S
C530        H542   1.082       .  S
C531        C532   1.371       .  A
C531        H543   1.082       .  S
C532        H544   1.082       .  S
C533        C534   1.372       .  A
C533        H545   1.082       .  S
C534        H546   1.082       .  S
C535        C631   1.486       .  S
C536        C655   1.494       .  S
C537        C667   1.495       .  S
C538        C643   1.487       .  S
N549        C554   1.352       .  A
N549        C553   1.353       .  A
N549        H581   1.041       .  S
N550        C557   1.350       .  A
N550        C558   1.351       .  A
N551        C556   1.353   1_565  A
N551        C555   1.354       .  A
N551        H582   1.040       .  S
N552        C559   1.352       .  A
N552        C560   1.351       .  A
C553        C561   1.387   1_565  A
C553        C569   1.414       .  A
C554        C570   1.412       .  A
C554        C562   1.386   1_565  A
C555        C563   1.387   1_565  A
C555        C572   1.417       .  A
C556        C571   1.416   1_545  A
C556        C564   1.387       .  A
C557        C569   1.412       .  A
C557        C565   1.387       .  A
C558        C572   1.412       .  A
C558        C566   1.386       .  A
C559        C567   1.385       .  A
C559        C570   1.413       .  A
C560        C568   1.387       .  A
C560        C571   1.415       .  A
C561        C562   1.375       .  A
C561        H573   1.082       .  S
C562        H574   1.082       .  S
C563        C564   1.377       .  A
C563        H575   1.082       .  S
C564        H576   1.082       .  S
C565        C566   1.374       .  A
C565        H577   1.082       .  S
C566        H578   1.082       .  S
C567        C568   1.375       .  A
C567        H579   1.082       .  S
C568        H580   1.082       .  S
C569        C607   1.489       .  S
C570        C583   1.489       .  S
C571        C598   1.492       .  S
C572        C619   1.492       .  S
C583        C584   1.405       .  A
C584        C585   1.401       .  A
C584        H593   1.084       .  S
C585        C586   1.413       .  A
C585        S589   1.805       .  S
C587        C588   1.399       .  A
C587        H594   1.083       .  S
C588        S590   1.803       .  S
S589        H592   1.407       .  S
S590        H591   1.406       .  S
C595        C600   1.414       .  A
C596        C597   1.398       .  A
C596        H605   1.084       .  S
C597        S601   1.803       .  S
C598        C599   1.403       .  A
C599        C600   1.400       .  A
C599        H606   1.084       .  S
C600        S602   1.803       .  S
S601        H604   1.406       .  S
S602        H603   1.403       .  S
C607        C612   1.414       .  A
C608        C609   1.397       .  A
C608        H617   1.084       .  S
C609        S613   1.800       .  S
C610        C611   1.404   1_545  A
C611        C612   1.398       .  A
C611        H618   1.084       .  S
C612        S614   1.803       .  S
S613        H616   1.406       .  S
S614        H615   1.406       .  S
C619        C624   1.412       .  A
C620        C621   1.405       .  A
C620        H629   1.083       .  S
C621        S625   1.806       .  S
C622        C623   1.405       .  A
C623        C624   1.402       .  A
C623        H630   1.084       .  S
C624        S626   1.803       .  S
S625        H628   1.406       .  S
S626        H627   1.407       .  S
C631       C1536   1.400       .  A
C631        C636   1.413       .  A
C632       C1535   1.403   1_455  A
C632        C633   1.400       .  A
C632        H641   1.084       .  S
C633       C1538   1.411   1_455  A
C633        S637   1.801       .  S
C634       C1537   1.411       .  A
C634        C635   1.403       .  A
C635        C636   1.402       .  A
C635        H642   1.083       .  S
C636        S638   1.803       .  S
S637        H640   1.405       .  S
S638        H639   1.405       .  S
C643        C644   1.403       .  A
C643       C1552   1.415       .  A
C644        C645   1.397       .  A
C644        H653   1.084       .  S
C645        C646   1.411       .  A
C645        S649   1.806       .  S
C646       C1382   1.465       .  S
C646       C1551   1.401       .  A
C647       C1550   1.403   1_455  A
C647        C648   1.402       .  A
C647        H654   1.084       .  S
C648       C1547   1.415   1_455  A
C648        S650   1.805       .  S
S649        H652   1.403       .  S
S650        H651   1.405       .  S
C655        C656   1.404       .  A
C655        C660   1.415       .  A
C656        C657   1.403       .  A
C656        H665   1.083       .  S
C657        C658   1.413       .  A
C657        S661   1.807       .  S
C658       C1563   1.405       .  A
C659       C1562   1.402   1_455  A
C659       C1564   1.402       .  A
C659        H666   1.084       .  S
C660       C1563   1.402       .  A
C660       S1566   1.805       .  S
S661        H664   1.407       .  S
S662       C1564   1.804       .  S
S662        H663   1.404       .  S
C667       C1572   1.405       .  A
C667        C672   1.414       .  A
C668       C1571   1.404       .  A
C668        C669   1.402       .  A
C668        H677   1.084       .  S
C669       C1574   1.415       .  A
C669        S673   1.804       .  S
C670       C1359   1.479       .  S
C670       C1573   1.414       .  A
C670        C671   1.403       .  A
C671        C672   1.399       .  A
C671        H678   1.084       .  S
C672        S674   1.804       .  S
S673        H676   1.402       .  S
S674        H675   1.406       .  S
O679       Zr691   2.455   1_556  S
O679        C681   1.290       .  A
O680        C681   1.285       .  A
C681       C1800   1.475       .  S
C684        C836   1.478       .  S
O685       Zr694   2.464   1_556  S
O685        C687   1.293       .  A
O686      Zr1621   2.420       .  S
O686        C687   1.285       .  A
O688       C1594   1.289   1_455  A
O689      Zr1622   2.434   1_565  S
O689       C1594   1.289       .  A
C690       O1592   1.291       .  A
C690       O1593   1.288       .  A
C690        C884   1.487       .  S
Zr691      O1601   2.373   1_454  S
Zr691      O1376   2.378   1_455  S
Zr691       O723   2.375   1_554  S
Zr691      O1596   2.434   1_455  S
O692      Zr1595   2.434       .  S
O692        H735   0.990   1_554  S
O693        H738   0.990       .  S
Zr694       O722   2.372   1_554  S
O695        H739   0.990       .  S
O697      Zr1595   2.373   1_556  S
O697      Zr1169   2.381       .  S
O698      Zr1369   2.375       .  S
O698       Zr718   2.390       .  S
O698        H725   0.966       .  S
O699       Zr711   2.452   1_565  S
O699        C701   1.290       .  A
O700      Zr1622   2.420   1_455  S
O700        C701   1.286   1_545  A
C701        C812   1.479       .  S
O702       C1608   1.288       .  A
O703      Zr1621   2.415       .  S
O703       C1608   1.284       .  A
C704       O1606   1.288       .  A
C704       O1607   1.286       .  A
C704       C1776   1.470       .  S
O705       Zr714   2.450       .  S
O705        C707   1.289       .  A
O706        C707   1.288       .  A
C707        C860   1.476       .  S
Zr711       O721   2.371   1_545  S
Zr714      O1398   2.377       .  S
Zr714      O1623   2.382       .  S
Zr714       O724   2.369       .  S
Zr714      O1619   2.435       .  S
O715      Zr1618   2.433   1_455  S
Zr717      O1590   2.428       .  S
Zr717      O1607   2.425       .  S
Zr717      O1149   2.381       .  S
Zr717       O720   2.381   1_655  S
Zr717      O1626   2.382       .  S
Zr718      O1593   2.430       .  S
Zr718      O1604   2.429       .  S
Zr718      O1171   2.377   1_565  S
Zr718      O1625   2.382       .  S
O719      Zr1618   2.376   1_455  S
O719      Zr1170   2.383   1_455  S
O719        H727   0.965       .  S
O720      Zr1392   2.377   1_456  S
O721      Zr1622   2.383   1_465  S
O722      Zr1621   2.380       .  S
O722        H726   0.965       .  S
O723        H728   0.965       .  S
N741        C746   1.355       .  A
N741        C745   1.356       .  A
N741        H773   1.037       .  S
N742        C749   1.352       .  A
N742        C750   1.352       .  A
N743        C748   1.355       .  A
N743        C747   1.353       .  A
N743        H774   1.034       .  S
N744        C751   1.352       .  A
N744        C752   1.352       .  A
C745        C753   1.386       .  A
C745        C761   1.417       .  A
C746        C762   1.420       .  A
C746        C754   1.387       .  A
C747        C755   1.388       .  A
C747        C764   1.420       .  A
C748        C763   1.420       .  A
C748        C756   1.388       .  A
C749        C761   1.413       .  A
C749        C757   1.386       .  A
C750        C764   1.417       .  A
C750        C758   1.388       .  A
C751        C759   1.386       .  A
C751        C762   1.417       .  A
C752        C760   1.387       .  A
C752        C763   1.417       .  A
C753        C754   1.375       .  A
C753        H765   1.082       .  S
C754        H766   1.082       .  S
C755        C756   1.373       .  A
C755        H767   1.081       .  S
C756        H768   1.082       .  S
C757        C758   1.371       .  A
C757        H769   1.082       .  S
C758        H770   1.082       .  S
C759        C760   1.374       .  A
C759        H771   1.082       .  S
C760        H772   1.082       .  S
C761        C857   1.490       .  S
C762        C881   1.495       .  S
C763        C893   1.493       .  S
C764        C869   1.486       .  S
N775        C780   1.353   1_565  A
N775        C779   1.352   1_565  A
N775        H807   1.040       .  S
N776        C783   1.350       .  A
N776        C784   1.351       .  A
N777        C782   1.353       .  A
N777        C781   1.354       .  A
N777        H808   1.040       .  S
N778        C785   1.352       .  A
N778        C786   1.350       .  A
C779        C787   1.387       .  A
C779        C795   1.414   1_545  A
C780        C796   1.413   1_545  A
C780        C788   1.386       .  A
C781        C789   1.386   1_565  A
C781        C798   1.416       .  A
C782        C797   1.417       .  A
C782        C790   1.387   1_565  A
C783        C795   1.412       .  A
C783        C791   1.386       .  A
C784        C798   1.412       .  A
C784        C792   1.386       .  A
C785        C793   1.385       .  A
C785        C796   1.412       .  A
C786        C794   1.387       .  A
C786        C797   1.413       .  A
C787        C788   1.375       .  A
C787        H799   1.082       .  S
C788        H800   1.082       .  S
C789        C790   1.377       .  A
C789        H801   1.082       .  S
C790        H802   1.082       .  S
C791        C792   1.373       .  A
C791        H803   1.082       .  S
C792        H804   1.082       .  S
C793        C794   1.374       .  A
C793        H805   1.082       .  S
C794        H806   1.082       .  S
C795        C833   1.487       .  S
C796        C809   1.491       .  S
C797        C824   1.490       .  S
C798        C845   1.494       .  S
C809        C810   1.404       .  A
C810        C811   1.400       .  A
C810        H819   1.084       .  S
C811        C812   1.414       .  A
C811        S815   1.804       .  S
C813        C814   1.402       .  A
C813        H820   1.082       .  S
C814        S816   1.805       .  S
S815        H818   1.407       .  S
S816        H817   1.406       .  S
C821        C826   1.414       .  A
C822        C823   1.400       .  A
C822        H831   1.084       .  S
C823        S827   1.803       .  S
C824        C825   1.402       .  A
C825        C826   1.399       .  A
C825        H832   1.084       .  S
C826        S828   1.804       .  S
S827        H830   1.407       .  S
S828        H829   1.402       .  S
C833        C838   1.413       .  A
C834        C835   1.397       .  A
C834        H843   1.084       .  S
C835        S839   1.801       .  S
C836        C837   1.403   1_545  A
C837        C838   1.398       .  A
C837        H844   1.084       .  S
C838        S840   1.804       .  S
S839        H842   1.406       .  S
S840        H841   1.405       .  S
C845        C850   1.412       .  A
C846        C847   1.405       .  A
C846        H855   1.083       .  S
C847        S851   1.807       .  S
C848        C849   1.405       .  A
C849        C850   1.402       .  A
C849        H856   1.084       .  S
C850        S852   1.803       .  S
S851        H854   1.407       .  S
S852        H853   1.407       .  S
C857       C1762   1.402       .  A
C857        C862   1.414       .  A
C858       C1761   1.404   1_455  A
C858        C859   1.400       .  A
C858        H867   1.084       .  S
C859       C1764   1.411   1_455  A
C859        S863   1.802       .  S
C860       C1763   1.410       .  A
C860        C861   1.404       .  A
C861        C862   1.404       .  A
C861        H868   1.082       .  S
C862        S864   1.804       .  S
S863        H866   1.405       .  S
S864        H865   1.404       .  S
C869        C870   1.403       .  A
C869       C1778   1.413       .  A
C870        C871   1.399       .  A
C870        H879   1.084       .  S
C871        C872   1.413       .  A
C871        S875   1.805       .  S
C872       C1608   1.468       .  S
C872       C1777   1.401       .  A
C873       C1776   1.402   1_455  A
C873        C874   1.400       .  A
C873        H880   1.084       .  S
C874       C1773   1.414   1_455  A
C874        S876   1.804       .  S
S875        H878   1.403       .  S
S876        H877   1.405       .  S
C881        C882   1.403       .  A
C881        C886   1.413       .  A
C882        C883   1.406       .  A
C882        H891   1.083       .  S
C883        C884   1.415       .  A
C883        S887   1.807       .  S
C884       C1789   1.405       .  A
C885       C1788   1.403   1_455  A
C885       C1790   1.402       .  A
C885        H892   1.084       .  S
C886       C1789   1.403       .  A
C886       S1792   1.804       .  S
S887        H890   1.407       .  S
S888       C1790   1.803       .  S
S888        H889   1.406       .  S
C893       C1798   1.404       .  A
C893        C898   1.414       .  A
C894       C1797   1.405       .  A
C894        C895   1.402       .  A
C894        H903   1.084       .  S
C895       C1800   1.413       .  A
C895        S899   1.803       .  S
C896       C1585   1.476       .  S
C896       C1799   1.413       .  A
C896        C897   1.403       .  A
C897        C898   1.398       .  A
C897        H904   1.084       .  S
C898        S900   1.804       .  S
S899        H902   1.403       .  S
S900        H901   1.406       .  S
O905       Zr917   2.458       .  S
O905        C907   1.290       .  A
O906      Zr1395   2.412       .  S
O906        C907   1.284       .  A
O908      Zr1146   2.447       .  S
O908       C1362   1.290   1_565  A
O909      Zr1396   2.423       .  S
O909       C1362   1.286       .  A
C910       O1360   1.291       .  A
C910       O1361   1.285       .  A
C910       C1062   1.481       .  S
O911       Zr920   2.457       .  S
O911        C913   1.291       .  A
O912        C913   1.284       .  A
C913       C1526   1.481       .  S
O914      Zr1143   2.453       .  S
C916       C1110   1.481       .  S
Zr917      O1140   2.451       .  S
Zr917      O1173   2.375       .  S
Zr917       O949   2.369       .  S
Zr917      O1145   2.434       .  S
O918        H961   0.990       .  S
O919      Zr1143   2.435       .  S
O919       H1186   0.990       .  S
O919        H964   0.990       .  S
Zr920      O1134   2.451       .  S
Zr920      O1602   2.370       .  S
Zr920      O1375   2.370       .  S
Zr920       O948   2.372   1_565  S
Zr920      O1176   2.380   1_565  S
Zr920      O1373   2.435       .  S
Zr920      O1148   2.435   1_565  S
O921      Zr1372   2.439       .  S
O921       H1188   0.990       .  S
O921        H965   0.990       .  S
O922      Zr1146   2.435   1_546  S
O922       H1181   0.990       .  S
O923      Zr1372   2.373       .  S
O924      Zr1598   2.371       .  S
O924       Zr944   2.387       .  S
O924        H951   0.966       .  S
O925       Zr937   2.453       .  S
O925        C927   1.290       .  A
O926        C927   1.286       .  A
C927       C1038   1.479       .  S
O928      Zr1166   2.441       .  S
O931       Zr940   2.449       .  S
O931        C933   1.288       .  A
O932      Zr1396   2.428       .  S
O932        C933   1.286       .  A
C933       C1086   1.473       .  S
O934      Zr1163   2.449       .  S
O934       C1388   1.289       .  A
O935      Zr1395   2.423       .  S
O935       C1388   1.286       .  A
C936       O1386   1.288       .  A
C936       O1387   1.286       .  A
C936       C1499   1.474       .  S
Zr937      O1160   2.450   1_554  S
Zr937      O1397   2.370       .  S
Zr937      O1624   2.377   1_554  S
Zr937      O1175   2.373   1_554  S
Zr937       O947   2.372       .  S
Zr937      O1616   2.435       .  S
Zr937      O1165   2.434       .  S
O938      Zr1615   2.435   1_545  S
O938       H1184   0.990       .  S
O938       H1189   0.990       .  S
O939      Zr1163   2.432       .  S
O939       H1185   0.990       .  S
Zr940      O1154   2.446   1_554  S
Zr940       O950   2.372       .  S
Zr940      O1174   2.375   1_554  S
Zr940      O1168   2.434       .  S
O941       H1183   0.990   1_554  S
O942      Zr1166   2.436       .  S
O942       H1182   0.990       .  S
O942       H1192   0.989       .  S
Zr943      O1358   2.416       .  S
Zr943      O1387   2.424       .  S
Zr943       O946   2.378   1_565  S
Zr943      O1401   2.382       .  S
Zr944      O1361   2.416       .  S
Zr944      O1384   2.437       .  S
Zr944      O1402   2.384       .  S
O945      Zr1389   2.366       .  S
O945        H953   0.965       .  S
O946      Zr1615   2.376   1_545  S
O947      Zr1143   2.369       .  S
O948      Zr1166   2.373       .  S
O948        H952   0.965       .  S
O949      Zr1163   2.374       .  S
O949      Zr1395   2.382       .  S
O949        H954   0.965       .  S
O950      Zr1146   2.381   1_545  S
O950      Zr1396   2.381       .  S
H955       O1148   0.990       .  S
H956       O1168   0.990       .  S
H957       O1167   0.990       .  S
H958       O1164   0.990       .  S
H959       O1165   0.990   1_556  S
H960       O1145   0.990       .  S
H962       O1147   0.990   1_556  S
H963       O1164   0.990   1_556  S
H966       O1168   0.990       .  S
N967        C972   1.355       .  A
N967        C971   1.354       .  A
N967        H999   1.037   1_655  S
N968        C975   1.353       .  A
N968        C976   1.353       .  A
N969        C974   1.353       .  A
N969        C973   1.353       .  A
N969       H1000   1.037   1_655  S
N970        C977   1.352       .  A
N970        C978   1.352       .  A
C971        C979   1.387       .  A
C971        C987   1.417       .  A
C972        C988   1.419   1_655  A
C972        C980   1.387       .  A
C973        C981   1.388       .  A
C973        C990   1.417       .  A
C974        C989   1.416   1_655  A
C974        C982   1.387       .  A
C975        C987   1.416       .  A
C975        C983   1.386       .  A
C976        C990   1.416       .  A
C976        C984   1.387       .  A
C977        C985   1.386       .  A
C977        C988   1.416       .  A
C978        C986   1.386       .  A
C978        C989   1.415       .  A
C979        C980   1.375       .  A
C979        H991   1.082       .  S
C980        H992   1.082       .  S
C981        C982   1.371       .  A
C981        H993   1.081       .  S
C982        H994   1.082       .  S
C983        C984   1.371       .  A
C983        H995   1.082       .  S
C984        H996   1.082       .  S
C985        C986   1.374       .  A
C985        H997   1.082       .  S
C986        H998   1.082       .  S
C987       C1083   1.488       .  S
C988       C1107   1.493       .  S
C989       C1119   1.490       .  S
C990       C1095   1.488       .  S
N1001      C1006   1.353       .  A
N1001      C1005   1.353       .  A
N1001      H1033   1.041       .  S
N1002      C1009   1.350       .  A
N1002      C1010   1.351       .  A
N1003      C1008   1.355       .  A
N1003      C1007   1.355       .  A
N1003      H1034   1.040       .  S
N1004      C1011   1.352       .  A
N1004      C1012   1.351       .  A
C1005      C1013   1.388       .  A
C1005      C1021   1.416       .  A
C1006      C1022   1.413       .  A
C1006      C1014   1.385       .  A
C1007      C1015   1.387       .  A
C1007      C1024   1.419       .  A
C1008      C1023   1.418       .  A
C1008      C1016   1.387       .  A
C1009      C1021   1.413       .  A
C1009      C1017   1.387       .  A
C1010      C1024   1.414       .  A
C1010      C1018   1.387       .  A
C1011      C1019   1.385       .  A
C1011      C1022   1.413       .  A
C1012      C1020   1.387       .  A
C1012      C1023   1.415       .  A
C1013      C1014   1.377       .  A
C1013      H1025   1.082       .  S
C1014      H1026   1.082       .  S
C1015      C1016   1.378       .  A
C1015      H1027   1.082       .  S
C1016      H1028   1.082       .  S
C1017      C1018   1.375       .  A
C1017      H1029   1.083       .  S
C1018      H1030   1.082       .  S
C1019      C1020   1.376       .  A
C1019      H1031   1.082       .  S
C1020      H1032   1.082       .  S
C1021      C1059   1.491       .  S
C1022      C1035   1.493       .  S
C1023      C1050   1.494       .  S
C1024      C1071   1.495       .  S
C1035      C1036   1.405       .  A
C1035      C1492   1.414       .  A
C1036      C1037   1.402       .  A
C1036      H1045   1.084       .  S
C1037      C1038   1.414       .  A
C1037      S1041   1.806       .  S
C1038      C1491   1.404       .  A
C1039      C1490   1.404   1_545  A
C1039      C1040   1.400       .  A
C1039      H1046   1.083       .  S
C1040      C1487   1.415   1_545  A
C1040      S1042   1.805       .  S
S1041      H1044   1.407       .  S
S1042      H1043   1.405       .  S
C1047      C1388   1.476       .  S
C1047      C1500   1.403       .  A
C1047      C1052   1.415       .  A
C1048      C1499   1.403   1_545  A
C1048      C1049   1.400       .  A
C1048      H1057   1.084       .  S
C1049      C1502   1.413   1_545  A
C1049      S1053   1.803       .  S
C1050      C1501   1.414       .  A
C1050      C1051   1.404       .  A
C1051      C1052   1.402       .  A
C1051      H1058   1.084       .  S
C1052      S1054   1.805       .  S
S1053      H1056   1.407       .  S
S1054      H1055   1.402       .  S
C1059      C1512   1.402       .  A
C1059      C1064   1.413       .  A
C1060      C1511   1.403   1_545  A
C1060      C1061   1.399       .  A
C1060      H1069   1.084       .  S
C1061      C1514   1.416       .  A
C1061      S1065   1.800       .  S
C1062      C1513   1.416       .  A
C1062      C1063   1.404       .  A
C1063      C1064   1.400       .  A
C1063      H1070   1.084       .  S
C1064      S1066   1.802       .  S
S1065      H1068   1.406       .  S
S1066      H1067   1.406       .  S
C1071      C1524   1.403       .  A
C1071      C1076   1.412       .  A
C1072      C1523   1.403   1_545  A
C1072      C1073   1.403       .  A
C1072      H1081   1.083       .  S
C1073      C1526   1.414   1_545  A
C1073      S1077   1.807       .  S
C1074      C1365   1.485       .  S
C1074      C1525   1.417       .  A
C1074      C1075   1.405       .  A
C1075      C1076   1.402       .  A
C1075      H1082   1.084       .  S
C1076      S1078   1.803       .  S
S1077      H1080   1.407       .  S
S1078      H1079   1.407       .  S
C1083      C1088   1.414       .  A
C1084      C1085   1.399       .  A
C1084      H1093   1.084       .  S
C1085      S1089   1.802       .  S
C1086      C1087   1.402       .  A
C1087      C1088   1.402       .  A
C1087      H1094   1.083       .  S
C1088      S1090   1.804       .  S
S1089      H1092   1.406       .  S
S1090      H1091   1.404       .  S
C1095      C1096   1.403       .  A
C1096      C1097   1.398       .  A
C1096      H1105   1.084       .  S
C1097      C1098   1.413       .  A
C1097      S1101   1.805       .  S
C1099      C1100   1.399       .  A
C1099      H1106   1.084       .  S
C1100      S1102   1.804       .  S
S1101      H1104   1.403       .  S
S1102      H1103   1.406       .  S
C1107      C1108   1.404   1_455  A
C1107      C1112   1.414       .  A
C1108      C1109   1.404       .  A
C1108      H1117   1.083       .  S
C1109      C1110   1.413   1_655  A
C1109      S1113   1.807       .  S
C1111      H1118   1.084       .  S
S1113      H1116   1.407       .  S
S1114      H1115   1.406       .  S
C1119      C1124   1.413   1_455  A
C1120      C1121   1.400       .  A
C1120      H1129   1.084       .  S
C1121      S1125   1.801       .  S
C1122      C1123   1.404   1_455  A
C1123      C1124   1.398       .  A
C1123      H1130   1.084       .  S
C1124      S1126   1.805       .  S
S1125      H1128   1.404       .  S
S1126      H1127   1.406       .  S
O1131     Zr1143   2.462   1_556  S
O1131      C1133   1.293       .  A
O1132     Zr1621   2.415       .  S
O1132      C1133   1.285       .  A
O1134      C1588   1.290   1_565  A
O1135     Zr1622   2.413       .  S
O1135      C1588   1.285       .  A
C1136      O1586   1.289       .  A
C1136      O1587   1.286       .  A
C1136      C1288   1.481       .  S
O1137     Zr1146   2.455   1_556  S
O1137      C1139   1.291       .  A
O1138      C1139   1.284       .  A
C1139      C1752   1.480       .  S
C1142      C1336   1.484       .  S
Zr1143     O1175   2.371   1_554  S
O1144      H1187   0.990       .  S
O1145      H1190   0.990       .  S
Zr1146     O1376   2.373       .  S
Zr1146     O1601   2.369   1_554  S
Zr1146     O1174   2.372   1_564  S
Zr1146     O1599   2.436       .  S
O1147     Zr1598   2.437       .  S
O1147      H1191   0.990       .  S
O1149     Zr1598   2.372   1_556  S
O1150     Zr1372   2.376       .  S
O1150     Zr1170   2.388       .  S
O1150      H1177   0.966       .  S
O1151     Zr1163   2.452       .  S
O1151      C1153   1.290       .  A
O1152      C1153   1.286       .  A
C1153      C1264   1.480       .  S
O1157     Zr1166   2.444       .  S
O1157      C1159   1.287       .  A
O1158     Zr1622   2.438       .  S
O1158      C1159   1.288       .  A
C1159      C1312   1.474       .  S
O1160      C1614   1.289       .  A
O1161     Zr1621   2.420       .  S
O1161      C1614   1.285       .  A
C1162      O1612   1.289       .  A
C1162      O1613   1.286       .  A
C1162      C1725   1.477       .  S
Zr1163     O1623   2.371       .  S
Zr1163     O1398   2.373       .  S
Zr1163     O1173   2.373       .  S
Zr1163     O1390   2.437       .  S
O1164     Zr1389   2.434       .  S
Zr1166     O1176   2.371       .  S
Zr1169     O1584   2.417       .  S
Zr1169     O1613   2.423       .  S
Zr1169     O1172   2.377   1_565  S
Zr1169     O1627   2.386       .  S
Zr1170     O1587   2.422       .  S
Zr1170     O1610   2.433       .  S
Zr1170     O1628   2.382       .  S
O1171     Zr1615   2.370   1_545  S
O1171      H1179   0.965       .  S
O1172     Zr1389   2.376   1_556  S
O1174      H1178   0.965       .  S
O1175     Zr1621   2.384       .  S
O1175      H1180   0.965       .  S
O1176     Zr1622   2.383       .  S
N1193      C1198   1.356       .  A
N1193      C1197   1.354       .  A
N1193      H1225   1.037   1_655  S
N1194      C1201   1.351       .  A
N1194      C1202   1.353       .  A
N1195      C1200   1.354   1_455  A
N1195      C1199   1.356   1_455  A
N1195      H1226   1.036       .  S
N1196      C1203   1.353       .  A
N1196      C1204   1.351       .  A
C1197      C1205   1.387       .  A
C1197      C1213   1.417       .  A
C1198      C1214   1.419   1_655  A
C1198      C1206   1.386       .  A
C1199      C1207   1.388       .  A
C1199      C1216   1.420       .  A
C1200      C1215   1.419   1_655  A
C1200      C1208   1.387       .  A
C1201      C1213   1.415       .  A
C1201      C1209   1.387       .  A
C1202      C1216   1.416       .  A
C1202      C1210   1.387       .  A
C1203      C1211   1.386       .  A
C1203      C1214   1.415       .  A
C1204      C1212   1.387       .  A
C1204      C1215   1.417       .  A
C1205      C1206   1.375       .  A
C1205      H1217   1.082       .  S
C1206      H1218   1.082       .  S
C1207      C1208   1.372       .  A
C1207      H1219   1.081       .  S
C1208      H1220   1.082       .  S
C1209      C1210   1.372       .  A
C1209      H1221   1.082       .  S
C1210      H1222   1.082       .  S
C1211      C1212   1.373       .  A
C1211      H1223   1.082       .  S
C1212      H1224   1.082       .  S
C1213      C1309   1.487       .  S
C1214      C1333   1.495       .  S
C1215      C1345   1.491       .  S
C1216      C1321   1.493       .  S
N1227      C1232   1.352       .  A
N1227      C1231   1.353       .  A
N1227      H1259   1.041       .  S
N1228      C1235   1.350       .  A
N1228      C1236   1.350       .  A
N1229      C1234   1.354       .  A
N1229      C1233   1.354       .  A
N1229      H1260   1.040       .  S
N1230      C1237   1.351       .  A
N1230      C1238   1.350       .  A
C1231      C1239   1.387       .  A
C1231      C1247   1.414       .  A
C1232      C1248   1.412       .  A
C1232      C1240   1.386       .  A
C1233      C1241   1.386       .  A
C1233      C1250   1.416       .  A
C1234      C1249   1.417       .  A
C1234      C1242   1.387       .  A
C1235      C1247   1.411       .  A
C1235      C1243   1.386       .  A
C1236      C1250   1.411       .  A
C1236      C1244   1.386       .  A
C1237      C1245   1.386       .  A
C1237      C1248   1.412       .  A
C1238      C1246   1.387       .  A
C1238      C1249   1.414       .  A
C1239      C1240   1.376       .  A
C1239      H1251   1.082       .  S
C1240      H1252   1.082       .  S
C1241      C1242   1.377       .  A
C1241      H1253   1.082       .  S
C1242      H1254   1.082       .  S
C1243      C1244   1.376       .  A
C1243      H1255   1.082       .  S
C1244      H1256   1.082       .  S
C1245      C1246   1.376       .  A
C1245      H1257   1.082       .  S
C1246      H1258   1.082       .  S
C1247      C1285   1.491       .  S
C1248      C1261   1.490       .  S
C1249      C1276   1.491       .  S
C1250      C1297   1.492       .  S
C1261      C1262   1.404       .  A
C1261      C1718   1.413       .  A
C1262      C1263   1.401       .  A
C1262      H1271   1.084       .  S
C1263      C1264   1.414       .  A
C1263      S1267   1.803       .  S
C1264      C1717   1.404       .  A
C1265      C1716   1.405   1_545  A
C1265      C1266   1.403       .  A
C1265      H1272   1.082       .  S
C1266      C1713   1.415   1_545  A
C1266      S1268   1.804       .  S
S1267      H1270   1.407       .  S
S1268      H1269   1.406       .  S
C1273      C1614   1.475       .  S
C1273      C1726   1.404       .  A
C1273      C1278   1.413       .  A
C1274      C1725   1.404   1_545  A
C1274      C1275   1.401       .  A
C1274      H1283   1.084       .  S
C1275      C1728   1.414   1_545  A
C1275      S1279   1.803       .  S
C1276      C1727   1.416       .  A
C1276      C1277   1.403       .  A
C1277      C1278   1.399       .  A
C1277      H1284   1.084       .  S
C1278      S1280   1.803       .  S
S1279      H1282   1.407       .  S
S1280      H1281   1.403       .  S
C1285      C1738   1.404       .  A
C1285      C1290   1.414       .  A
C1286      C1737   1.403   1_545  A
C1286      C1287   1.398       .  A
C1286      H1295   1.084       .  S
C1287      C1740   1.415       .  A
C1287      S1291   1.802       .  S
C1288      C1739   1.415       .  A
C1288      C1289   1.404       .  A
C1289      C1290   1.399       .  A
C1289      H1296   1.084       .  S
C1290      S1292   1.804       .  S
S1291      H1294   1.406       .  S
S1292      H1293   1.406       .  S
C1297      C1750   1.402       .  A
C1297      C1302   1.412       .  A
C1298      C1749   1.404   1_545  A
C1298      C1299   1.404       .  A
C1298      H1307   1.083       .  S
C1299      C1752   1.414   1_545  A
C1299      S1303   1.807       .  S
C1300      C1591   1.488       .  S
C1300      C1751   1.416       .  A
C1300      C1301   1.406       .  A
C1301      C1302   1.403       .  A
C1301      H1308   1.084       .  S
C1302      S1304   1.804       .  S
S1303      H1306   1.406       .  S
S1304      H1305   1.407       .  S
C1309      C1314   1.415       .  A
C1310      C1311   1.398       .  A
C1310      H1319   1.084       .  S
C1311      S1315   1.801       .  S
C1312      C1313   1.404       .  A
C1313      C1314   1.404       .  A
C1313      H1320   1.083       .  S
C1314      S1316   1.806       .  S
S1315      H1318   1.403       .  S
S1316      H1317   1.403       .  S
C1321      C1322   1.405       .  A
C1322      C1323   1.400       .  A
C1322      H1331   1.084       .  S
C1323      C1324   1.412       .  A
C1323      S1327   1.806       .  S
C1325      C1326   1.399       .  A
C1325      H1332   1.084       .  S
C1326      S1328   1.807       .  S
S1327      H1330   1.403       .  S
S1328      H1329   1.404       .  S
C1333      C1334   1.404   1_455  A
C1333      C1338   1.414       .  A
C1334      C1335   1.405       .  A
C1334      H1343   1.083       .  S
C1335      C1336   1.415   1_655  A
C1335      S1339   1.809       .  S
C1337      H1344   1.084       .  S
S1339      H1342   1.406       .  S
S1340      H1341   1.405       .  S
C1345      C1350   1.412   1_455  A
C1346      C1347   1.403       .  A
C1346      H1355   1.084       .  S
C1347      S1351   1.802       .  S
C1348      C1349   1.402   1_455  A
C1349      C1350   1.395       .  A
C1349      H1356   1.084       .  S
C1350      S1352   1.804       .  S
S1351      H1354   1.405       .  S
S1352      H1353   1.406       .  S
O1357     Zr1369   2.459       .  S
O1357      C1359   1.291       .  A
O1358      C1359   1.285       .  A
O1360     Zr1598   2.455       .  S
C1362      C1514   1.483       .  S
O1363     Zr1372   2.459       .  S
O1363      C1365   1.292       .  A
O1364      C1365   1.285       .  A
O1366     Zr1595   2.448       .  S
C1368      C1562   1.475       .  S
Zr1369     O1592   2.459       .  S
Zr1369     O1625   2.374       .  S
Zr1369     O1401   2.372       .  S
Zr1369     O1597   2.434       .  S
O1370      H1413   0.990       .  S
O1371     Zr1595   2.435       .  S
O1371      H1638   0.990   1_554  S
O1371      H1416   0.990   1_554  S
Zr1372     O1586   2.449       .  S
Zr1372     O1400   2.372       .  S
Zr1372     O1628   2.379       .  S
Zr1372     O1600   2.435       .  S
O1373      H1640   0.990       .  S
O1373      H1417   0.990       .  S
O1374     Zr1598   2.436   1_556  S
O1374      H1633   0.990       .  S
O1376     Zr1396   2.387   1_565  S
O1376      H1403   0.966       .  S
O1377     Zr1389   2.449   1_565  S
O1377      C1379   1.290       .  A
O1378      C1379   1.285   1_545  A
C1379      C1490   1.479       .  S
O1380     Zr1618   2.452       .  S
O1383     Zr1392   2.452       .  S
O1383      C1385   1.289       .  A
O1384      C1385   1.288       .  A
C1385      C1538   1.478       .  S
O1386     Zr1615   2.445       .  S
Zr1389     O1612   2.449   1_544  S
Zr1389     O1627   2.372   1_544  S
Zr1389     O1399   2.372   1_545  S
Zr1389     O1617   2.434   1_545  S
O1390      H1636   0.990       .  S
O1390      H1641   0.990       .  S
O1391     Zr1615   2.433       .  S
O1391      H1637   0.990       .  S
Zr1392     O1606   2.444   1_554  S
Zr1392     O1402   2.375       .  S
Zr1392     O1626   2.374   1_554  S
Zr1392     O1620   2.434   1_554  S
O1393      H1635   0.990       .  S
O1394     Zr1618   2.437       .  S
O1394      H1634   0.990       .  S
O1394      H1644   0.990       .  S
Zr1395     O1398   2.379       .  S
O1397      H1405   0.965       .  S
O1399     Zr1595   2.371       .  S
O1400     Zr1618   2.374       .  S
O1400      H1404   0.964       .  S
O1401     Zr1615   2.371       .  S
O1401      H1406   0.965       .  S
O1402     Zr1598   2.383       .  S
H1407      O1600   0.990       .  S
H1408      O1620   0.990   1_554  S
H1409      O1619   0.990       .  S
H1410      O1616   0.990       .  S
H1411      O1617   0.990       .  S
H1412      O1597   0.990       .  S
H1414      O1599   0.990       .  S
H1415      O1616   0.990       .  S
H1418      O1620   0.990   1_554  S
N1419      C1424   1.355       .  A
N1419      C1423   1.354       .  A
N1419      H1451   1.032   1_655  S
N1420      C1427   1.353       .  A
N1420      C1428   1.353       .  A
N1421      C1426   1.355       .  A
N1421      C1425   1.355       .  A
N1421      H1452   1.033   1_655  S
N1422      C1429   1.353   1_655  A
N1422      C1430   1.352   1_655  A
C1423      C1431   1.388       .  A
C1423      C1439   1.421       .  A
C1424      C1440   1.420       .  A
C1424      C1432   1.387       .  A
C1425      C1433   1.388       .  A
C1425      C1442   1.422       .  A
C1426      C1441   1.421   1_655  A
C1426      C1434   1.387       .  A
C1427      C1439   1.419       .  A
C1427      C1435   1.387       .  A
C1428      C1442   1.419       .  A
C1428      C1436   1.387       .  A
C1429      C1437   1.386       .  A
C1429      C1440   1.417   1_455  A
C1430      C1438   1.387       .  A
C1430      C1441   1.418       .  A
C1431      C1432   1.376       .  A
C1431      H1443   1.082       .  S
C1432      H1444   1.082       .  S
C1433      C1434   1.374       .  A
C1433      H1445   1.082       .  S
C1434      H1446   1.082       .  S
C1435      C1436   1.372       .  A
C1435      H1447   1.082       .  S
C1436      H1448   1.082       .  S
C1437      C1438   1.373       .  A
C1437      H1449   1.082       .  S
C1438      H1450   1.082       .  S
C1439      C1535   1.491       .  S
C1440      C1559   1.491   1_655  S
C1441      C1571   1.493       .  S
C1442      C1547   1.492       .  S
N1453      C1458   1.352   1_565  A
N1453      C1457   1.352   1_565  A
N1453      H1485   1.041       .  S
N1454      C1461   1.351       .  A
N1454      C1462   1.352       .  A
N1455      C1460   1.353       .  A
N1455      C1459   1.354       .  A
N1455      H1486   1.040       .  S
N1456      C1463   1.352       .  A
N1456      C1464   1.350       .  A
C1457      C1465   1.388       .  A
C1457      C1473   1.415   1_545  A
C1458      C1474   1.412   1_545  A
C1458      C1466   1.386       .  A
C1459      C1467   1.387   1_565  A
C1459      C1476   1.417       .  A
C1460      C1475   1.416       .  A
C1460      C1468   1.387   1_565  A
C1461      C1473   1.415       .  A
C1461      C1469   1.387       .  A
C1462      C1476   1.413       .  A
C1462      C1470   1.386       .  A
C1463      C1471   1.385       .  A
C1463      C1474   1.412       .  A
C1464      C1472   1.387       .  A
C1464      C1475   1.413       .  A
C1465      C1466   1.376       .  A
C1465      H1477   1.082       .  S
C1466      H1478   1.082       .  S
C1467      C1468   1.376       .  A
C1467      H1479   1.082       .  S
C1468      H1480   1.082       .  S
C1469      C1470   1.375       .  A
C1469      H1481   1.082       .  S
C1470      H1482   1.082       .  S
C1471      C1472   1.375       .  A
C1471      H1483   1.082       .  S
C1472      H1484   1.082       .  S
C1473      C1511   1.492       .  S
C1474      C1487   1.491       .  S
C1475      C1502   1.489       .  S
C1476      C1523   1.493       .  S
C1487      C1488   1.404       .  A
C1488      C1489   1.399       .  A
C1488      H1497   1.084       .  S
C1489      C1490   1.413       .  A
C1489      S1493   1.804       .  S
C1491      C1492   1.402       .  A
C1491      H1498   1.082       .  S
C1492      S1494   1.803       .  S
S1493      H1496   1.407       .  S
S1494      H1495   1.406       .  S
C1499      C1504   1.414       .  A
C1500      C1501   1.400       .  A
C1500      H1509   1.084       .  S
C1501      S1505   1.802       .  S
C1502      C1503   1.402       .  A
C1503      C1504   1.398       .  A
C1503      H1510   1.084       .  S
C1504      S1506   1.803       .  S
S1505      H1508   1.406       .  S
S1506      H1507   1.403       .  S
C1511      C1516   1.415       .  A
C1512      C1513   1.399       .  A
C1512      H1521   1.084       .  S
C1513      S1517   1.800       .  S
C1514      C1515   1.404   1_545  A
C1515      C1516   1.399       .  A
C1515      H1522   1.084       .  S
C1516      S1518   1.804       .  S
S1517      H1520   1.406       .  S
S1518      H1519   1.406       .  S
C1523      C1528   1.414       .  A
C1524      C1525   1.404       .  A
C1524      H1533   1.083       .  S
C1525      S1529   1.807       .  S
C1526      C1527   1.404       .  A
C1527      C1528   1.401       .  A
C1527      H1534   1.084       .  S
C1528      S1530   1.804       .  S
S1529      H1532   1.406       .  S
S1530      H1531   1.406       .  S
C1535      C1540   1.415       .  A
C1536      C1537   1.396       .  A
C1536      H1545   1.084       .  S
C1537      S1541   1.801       .  S
C1538      C1539   1.403       .  A
C1539      C1540   1.404       .  A
C1539      H1546   1.082       .  S
C1540      S1542   1.807       .  S
S1541      H1544   1.404       .  S
S1542      H1543   1.402       .  S
C1547      C1548   1.403       .  A
C1548      C1549   1.400       .  A
C1548      H1557   1.084       .  S
C1549      C1550   1.413       .  A
C1549      S1553   1.805       .  S
C1551      C1552   1.398       .  A
C1551      H1558   1.084       .  S
C1552      S1554   1.805       .  S
S1553      H1556   1.402       .  S
S1554      H1555   1.405       .  S
C1559      C1560   1.404   1_455  A
C1559      C1564   1.414       .  A
C1560      C1561   1.401       .  A
C1560      H1569   1.084       .  S
C1561      C1562   1.411       .  A
C1561      S1565   1.801       .  S
C1563      H1570   1.084       .  S
S1565      H1568   1.405       .  S
S1566      H1567   1.405       .  S
C1571      C1576   1.413   1_455  A
C1572      C1573   1.402       .  A
C1572      H1581   1.084       .  S
C1573      S1577   1.804       .  S
C1574      C1575   1.403   1_455  A
C1575      C1576   1.399       .  A
C1575      H1582   1.084       .  S
C1576      S1578   1.803       .  S
S1577      H1580   1.405       .  S
S1578      H1579   1.406       .  S
O1583     Zr1595   2.450   1_556  S
O1583      C1585   1.289       .  A
O1584      C1585   1.286       .  A
C1588      C1740   1.480       .  S
O1589     Zr1598   2.462   1_556  S
O1589      C1591   1.292       .  A
O1590      C1591   1.287       .  A
C1594      C1788   1.481       .  S
Zr1595     O1627   2.372   1_554  S
O1596      H1639   0.990   1_554  S
O1597      H1642   0.990       .  S
Zr1598     O1626   2.374   1_554  S
O1599      H1643   0.990       .  S
O1602     Zr1622   2.385   1_565  S
O1602      H1629   0.965       .  S
O1603     Zr1615   2.451       .  S
O1603      C1605   1.290       .  A
O1604      C1605   1.287       .  A
C1605      C1716   1.484       .  S
O1609     Zr1618   2.449       .  S
O1609      C1611   1.288       .  A
O1610      C1611   1.287       .  A
C1611      C1764   1.476       .  S
Zr1615     O1625   2.373       .  S
Zr1618     O1628   2.377       .  S
Zr1621     O1624   2.380       .  S
O1623      H1631   0.965       .  S
O1626      H1630   0.964       .  S
O1627      H1632   0.965       .  S
N1645      C1650   1.357       .  A
N1645      C1649   1.357       .  A
N1645      H1677   1.034   1_655  S
N1646      C1653   1.354       .  A
N1646      C1654   1.353       .  A
N1647      C1652   1.355       .  A
N1647      C1651   1.354       .  A
N1647      H1678   1.035   1_655  S
N1648      C1655   1.353       .  A
N1648      C1656   1.353       .  A
C1649      C1657   1.387       .  A
C1649      C1665   1.423       .  A
C1650      C1666   1.425   1_655  A
C1650      C1658   1.387       .  A
C1651      C1659   1.388       .  A
C1651      C1668   1.420       .  A
C1652      C1667   1.419   1_655  A
C1652      C1660   1.387       .  A
C1653      C1665   1.419       .  A
C1653      C1661   1.387       .  A
C1654      C1668   1.418       .  A
C1654      C1662   1.387       .  A
C1655      C1663   1.387       .  A
C1655      C1666   1.419       .  A
C1656      C1664   1.387       .  A
C1656      C1667   1.418       .  A
C1657      C1658   1.376       .  A
C1657      H1669   1.082       .  S
C1658      H1670   1.082       .  S
C1659      C1660   1.372       .  A
C1659      H1671   1.081       .  S
C1660      H1672   1.082       .  S
C1661      C1662   1.373       .  A
C1661      H1673   1.082       .  S
C1662      H1674   1.082       .  S
C1663      C1664   1.374       .  A
C1663      H1675   1.082       .  S
C1664      H1676   1.082       .  S
C1665      C1761   1.495       .  S
C1666      C1785   1.498       .  S
C1667      C1797   1.492       .  S
C1668      C1773   1.490       .  S
N1679      C1684   1.354   1_565  A
N1679      C1683   1.352   1_565  A
N1679      H1711   1.041       .  S
N1680      C1687   1.351       .  A
N1680      C1688   1.351       .  A
N1681      C1686   1.353       .  A
N1681      C1685   1.354       .  A
N1681      H1712   1.040       .  S
N1682      C1689   1.352       .  A
N1682      C1690   1.350       .  A
C1683      C1691   1.388       .  A
C1683      C1699   1.415   1_545  A
C1684      C1700   1.413   1_545  A
C1684      C1692   1.385       .  A
C1685      C1693   1.387   1_565  A
C1685      C1702   1.417       .  A
C1686      C1701   1.416       .  A
C1686      C1694   1.387   1_565  A
C1687      C1699   1.415       .  A
C1687      C1695   1.387       .  A
C1688      C1702   1.413       .  A
C1688      C1696   1.386       .  A
C1689      C1697   1.385       .  A
C1689      C1700   1.412       .  A
C1690      C1698   1.387       .  A
C1690      C1701   1.413       .  A
C1691      C1692   1.377       .  A
C1691      H1703   1.082       .  S
C1692      H1704   1.082       .  S
C1693      C1694   1.377       .  A
C1693      H1705   1.082       .  S
C1694      H1706   1.082       .  S
C1695      C1696   1.376       .  A
C1695      H1707   1.082       .  S
C1696      H1708   1.082       .  S
C1697      C1698   1.376       .  A
C1697      H1709   1.082       .  S
C1698      H1710   1.082       .  S
C1699      C1737   1.491       .  S
C1700      C1713   1.496       .  S
C1701      C1728   1.490       .  S
C1702      C1749   1.493       .  S
C1713      C1714   1.405       .  A
C1714      C1715   1.402       .  A
C1714      H1723   1.084       .  S
C1715      C1716   1.414       .  A
C1715      S1719   1.804       .  S
C1717      C1718   1.401       .  A
C1717      H1724   1.082       .  S
C1718      S1720   1.805       .  S
S1719      H1722   1.407       .  S
S1720      H1721   1.406       .  S
C1725      C1730   1.415       .  A
C1726      C1727   1.402       .  A
C1726      H1735   1.084       .  S
C1727      S1731   1.806       .  S
C1728      C1729   1.402       .  A
C1729      C1730   1.399       .  A
C1729      H1736   1.084       .  S
C1730      S1732   1.803       .  S
S1731      H1734   1.405       .  S
S1732      H1733   1.402       .  S
C1737      C1742   1.415       .  A
C1738      C1739   1.400       .  A
C1738      H1747   1.084       .  S
C1739      S1743   1.802       .  S
C1740      C1741   1.404   1_545  A
C1741      C1742   1.399       .  A
C1741      H1748   1.084       .  S
C1742      S1744   1.805       .  S
S1743      H1746   1.407       .  S
S1744      H1745   1.405       .  S
C1749      C1754   1.413       .  A
C1750      C1751   1.405       .  A
C1750      H1759   1.083       .  S
C1751      S1755   1.806       .  S
C1752      C1753   1.404       .  A
C1753      C1754   1.401       .  A
C1753      H1760   1.084       .  S
C1754      S1756   1.803       .  S
S1755      H1758   1.407       .  S
S1756      H1757   1.407       .  S
C1761      C1766   1.418       .  A
C1762      C1763   1.398       .  A
C1762      H1771   1.084       .  S
C1763      S1767   1.800       .  S
C1764      C1765   1.402       .  A
C1765      C1766   1.404       .  A
C1765      H1772   1.083       .  S
C1766      S1768   1.805       .  S
S1767      H1770   1.405       .  S
S1768      H1769   1.402       .  S
C1773      C1774   1.402       .  A
C1774      C1775   1.399       .  A
C1774      H1783   1.084       .  S
C1775      C1776   1.414       .  A
C1775      S1779   1.807       .  S
C1777      C1778   1.397       .  A
C1777      H1784   1.084       .  S
C1778      S1780   1.805       .  S
S1779      H1782   1.401       .  S
S1780      H1781   1.405       .  S
C1785      C1786   1.406   1_455  A
C1785      C1790   1.414       .  A
C1786      C1787   1.406       .  A
C1786      H1795   1.083       .  S
C1787      C1788   1.411       .  A
C1787      S1791   1.804       .  S
C1789      H1796   1.084       .  S
S1791      H1794   1.407       .  S
S1792      H1793   1.406       .  S
C1797      C1802   1.413   1_455  A
C1798      C1799   1.401       .  A
C1798      H1807   1.084       .  S
C1799      S1803   1.803       .  S
C1800      C1801   1.403   1_455  A
C1801      C1802   1.399       .  A
C1801      H1808   1.084       .  S
C1802      S1804   1.804       .  S
S1803      H1806   1.404       .  S
S1804      H1805   1.406       .  S
