geometry optimzed in LAMMPS
_audit_creation_date              2020-11-30 
_audit_creation_method            'lammps2cif' 
_symmetry_space_group_name_H-M    'P1' 
_symmetry_Int_Tables_number       1 
_symmetry_cell_setting            triclinic 
loop_ 
_symmetry_equiv_pos_as_xyz 
  x,y,z 
_cell_length_a                    58.68771434 
_cell_length_b                    58.69701718603008 
_cell_length_c                    31.243707973644348 
_cell_angle_alpha                 90.02228873670111 
_cell_angle_beta                  90.0975802159284 
_cell_angle_gamma                 89.88275384292716 
loop_ 
_atom_site_label 
_atom_site_type_symbol 
_atom_site_fract_x 
_atom_site_fract_y 
_atom_site_fract_z 
_atom_site_charge 
Zr1        Zr  0.64750666  0.85548099  0.12958919     2.17500
O2          O  0.67592008  0.83238856  0.09232800    -0.51300
O3          O  0.63882759  0.86356370  0.05399789    -0.74500
O4          O  0.63700586  0.81527664  0.12324889    -0.81300
O5          O  0.69255606  0.90040049  0.16300881    -0.83000
O6          O  0.60337497  0.80884949  0.15731310    -0.78600
O7          O  0.68793619  0.86591188  0.13110195    -0.90300
O8          O  0.60924960  0.88840372  0.05066138    -0.76200
O9          O  0.60709189  0.85923876  0.12720818    -0.85700
O10         O  0.64023415  0.89539766  0.12390802    -0.85400
O11         O  0.63367965  0.83930546  0.19567028    -0.72200
O12         O  0.66325107  0.87261905  0.19274689    -0.84300
Zr13       Zr  0.60095349  0.90047641  0.25182613     2.26400
Zr14       Zr  0.59300505  0.84409804  0.19343512     2.06300
Zr15       Zr  0.65532045  0.91234416  0.18772816     2.10000
Zr16       Zr  0.59983795  0.89907682  0.12290803     1.78800
O17         O  0.68375557  0.92813809  0.23609689    -0.93100
O18         O  0.56427457  0.88494790  0.09263467    -0.40900
O19         O  0.61482114  0.91669990  0.18601591    -0.77500
O20         O  0.58481562  0.88403233  0.18773087    -0.96200
O21         O  0.60869248  0.86076250  0.25705878    -0.89500
O22         O  0.64153095  0.89694061  0.25392418    -0.92400
C23         C  0.62421408  0.87562006  0.03308439     1.01400
C24         C  0.70033596  0.88268857  0.14388522     1.14300
C25         C  0.62068880  0.80223521  0.13543964     1.05100
O26         O  0.56103390  0.83369271  0.14771597    -0.94500
O27         O  0.55724743  0.85289884  0.22971573    -0.90300
O28         O  0.56126730  0.88781054  0.26041554    -0.83400
C29         C  0.54930786  0.87021802  0.25011174     1.11700
O30         O  0.67933263  0.82876616  0.25126173    -0.96500
Zr31       Zr  0.64913437  0.85706783  0.25777944     1.88900
O32         O  0.61107683  0.89246693  0.32666381    -0.73100
O33         O  0.58735293  0.81323973  0.24440281    -0.52400
O34         O  0.63719797  0.82156853  0.29122389    -0.97100
O35         O  0.68585082  0.86703764  0.28917919    -0.54300
O36         O  0.64104950  0.86804316  0.33001745    -0.73700
C37         C  0.62591196  0.88062339  0.34735655     0.98700
O38         O  0.57424552  0.92376428  0.29293512    -0.62500
O39         O  0.66546795  0.93940058  0.13162780    -0.57300
O40         O  0.60936274  0.94144796  0.25180012    -0.94000
O41         O  0.64214318  0.94846292  0.21550804    -0.92400
O42         O  0.60762334  0.93498479  0.08725213    -0.92700
O43         O  0.57009458  0.92795786  0.12654491    -0.91500
C44         C  0.62482037  0.95487751  0.23732362     1.17500
H45         H  0.64724798  0.90175499  0.09865340     0.33500
H46         H  0.56870817  0.88692913  0.18493493     0.44300
H47         H  0.64793083  0.90509972  0.27795207     0.37800
H48         H  0.63790280  0.82352292  0.19901553     0.34300
H49         H  0.56250643  0.89327207  0.06526341     0.26100
H50         H  0.58603897  0.82082252  0.27260663     0.32100
H51         H  0.62538016  0.82603426  0.31221167     0.38000
H52         H  0.62425152  0.93716716  0.09035910     0.32400
H53         H  0.65735922  0.95368948  0.13881574     0.31300
H54         H  0.69089719  0.94067338  0.21974003     0.33000
H55         H  0.68564341  0.86040947  0.31832114     0.31900
H56         H  0.56994480  0.93274130  0.15693668     0.35900
H57         H  0.58348746  0.93183108  0.31471859     0.28700
H58         H  0.66786014  0.82519016  0.06797276     0.32900
H59         H  0.68793066  0.83338356  0.22543823     0.35800
H60         H  0.68173752  0.94293549  0.13669443     0.28400
H61         H  0.56867335  0.93580624  0.27332231     0.41200
H62         H  0.55845819  0.81729978  0.15332667     0.31300
H63         H  0.56762864  0.86906805  0.08396176     0.38900
H64         H  0.68509711  0.88370120  0.29382341     0.30800
H65         H  0.57181871  0.80754295  0.23828857     0.30800
H66         H  0.67980391  0.81969018  0.11189494     0.31100
Zr67       Zr  0.64969147  0.85257553  0.62782554     2.17500
O68         O  0.67756014  0.83017049  0.58787229    -0.51300
O69         O  0.64147641  0.86254938  0.55266170    -0.74500
O70         O  0.63827003  0.81264310  0.61977197    -0.81300
O71         O  0.69693439  0.89410084  0.66520636    -0.83000
O72         O  0.60399158  0.80727713  0.65201358    -0.78600
O73         O  0.69068093  0.86067727  0.63049431    -0.90300
O74         O  0.61084134  0.88615421  0.54970898    -0.76200
O75         O  0.60953770  0.85854645  0.62330107    -0.85700
O76         O  0.64461945  0.89285977  0.62372248    -0.85400
O77         O  0.63433260  0.83635161  0.69292405    -0.72200
O78         O  0.66566457  0.86789668  0.69258891    -0.84300
Zr79       Zr  0.60337660  0.89798565  0.74897360     2.26400
Zr80       Zr  0.59397374  0.84272761  0.68771256     2.06300
Zr81       Zr  0.65994136  0.90794392  0.68886769     2.10000
Zr82       Zr  0.60447596  0.89889228  0.62126620     1.78800
O83         O  0.68968120  0.92266326  0.73570285    -0.93100
O84         O  0.56648723  0.89275036  0.59181186    -0.40900
O85         O  0.61972946  0.91435211  0.68560979    -0.77500
O86         O  0.58766536  0.88298330  0.68346350    -0.96200
O87         O  0.60933370  0.85781857  0.75302441    -0.89500
O88         O  0.64375086  0.89302185  0.75374531    -0.92400
C89         C  0.62625798  0.87406586  0.53214402     1.01400
C90         C  0.70393730  0.87639499  0.64486902     1.14300
C91         C  0.62134993  0.80008417  0.63095845     1.05100
O92         O  0.56345918  0.83392364  0.63752514    -0.94500
O93         O  0.55813706  0.85296342  0.72218202    -0.90300
O94         O  0.56311806  0.88726754  0.75480559    -0.83400
C95         C  0.55066629  0.87034367  0.74299457     1.11700
O96         O  0.68069346  0.82560603  0.74922929    -0.96500
Zr97       Zr  0.64966577  0.85292410  0.75666182     1.88900
O98         O  0.61066064  0.88876263  0.82445933    -0.73100
O99         O  0.58327351  0.81183613  0.73567208    -0.52400
O100        O  0.64319637  0.81566003  0.78830415    -0.97100
O101        O  0.68417878  0.86609271  0.79253667    -0.54300
O102        O  0.63721430  0.86081442  0.82865610    -0.73700
C103        C  0.62313953  0.87472243  0.84586843     0.98700
O104        O  0.57539540  0.92303479  0.78276906    -0.62500
O105        O  0.67039382  0.93540656  0.63387312    -0.57300
O106        O  0.61431133  0.93837186  0.75067069    -0.94000
O107        O  0.64840316  0.94420992  0.71780850    -0.92400
O108        O  0.61846304  0.93214628  0.58299003    -0.92700
O109        O  0.57923278  0.93149064  0.63019405    -0.91500
C110        C  0.63075109  0.95115562  0.73796869     1.17500
H111        H  0.65220226  0.89912306  0.59897151     0.33500
H112        H  0.57176705  0.88663883  0.67976388     0.44300
H113        H  0.64969007  0.90079359  0.77860836     0.37800
H114        H  0.63791148  0.82039397  0.69595708     0.34300
H115        H  0.56784849  0.89587204  0.56078415     0.26100
H116        H  0.57230821  0.80256375  0.71903787     0.32100
H117        H  0.62644578  0.81383519  0.78789912     0.38000
H118        H  0.60987192  0.93228297  0.55568865     0.32400
H119        H  0.65775029  0.94659833  0.63346184     0.31300
H120        H  0.68924542  0.91282966  0.76139008     0.33000
H121        H  0.68750936  0.85428412  0.81430313     0.31900
H122        H  0.57912595  0.93438700  0.66142204     0.35900
H123        H  0.58355788  0.93115539  0.80593643     0.28700
H124        H  0.66918624  0.82360003  0.56327237     0.32900
H125        H  0.68572772  0.82719270  0.71914731     0.35800
H126        H  0.68342115  0.94383538  0.64629825     0.28400
H127        H  0.57165650  0.93488161  0.76128767     0.41200
H128        H  0.55481755  0.82146153  0.65131580     0.31300
H129        H  0.56411012  0.87609116  0.59367827     0.38900
H130        H  0.67952494  0.87952778  0.80956643     0.30800
H131        H  0.59704020  0.80213527  0.73781693     0.30800
H132        H  0.68149166  0.81699817  0.60626171     0.31100
Zr133      Zr  0.89582191  0.89907829  0.00160389     2.17500
O134        O  0.91779492  0.92585722  0.95853599    -0.51300
O135        O  0.88573514  0.89068631  0.92662681    -0.74500
O136        O  0.93593121  0.88799980  0.99465518    -0.81300
O137        O  0.85289947  0.94582203  0.03563845    -0.83000
O138        O  0.94139023  0.85369703  0.02691671    -0.78600
O139        O  0.88720751  0.94000189  0.00367282    -0.90300
O140        O  0.86424682  0.85863998  0.92405579    -0.76200
O141        O  0.89051434  0.85884204  0.99835164    -0.85700
O142        O  0.85569154  0.89352332  0.99732494    -0.85400
O143        O  0.91220231  0.88435550  0.06724941    -0.72200
O144        O  0.88028729  0.91526661  0.06594488    -0.84300
Zr145      Zr  0.85074752  0.85323646  0.12382155     2.26400
Zr146      Zr  0.90618587  0.84390830  0.06360925     2.06300
Zr147      Zr  0.84037091  0.90904650  0.06206164     2.10000
Zr148      Zr  0.85028704  0.85335279  0.99544072     1.78800
O149        O  0.82810613  0.93768035  0.11357424    -0.93100
O150        O  0.85673644  0.81516550  0.96720591    -0.40900
O151        O  0.83452558  0.86878156  0.05946830    -0.77500
O152        O  0.86591223  0.83699335  0.05880488    -0.96200
O153        O  0.89069549  0.85955425  0.12820407    -0.89500
O154        O  0.85547640  0.89357904  0.12734323    -0.92400
C155        C  0.87544036  0.87463898  0.90625873     1.01400
C156        C  0.87082541  0.95297176  0.01638342     1.14300
C157        C  0.94856687  0.87110976  0.00600506     1.05100
O158        O  0.91499218  0.81218750  0.01621703    -0.94500
O159        O  0.89694607  0.80845101  0.10029255    -0.90300
O160        O  0.86202903  0.81310806  0.13053663    -0.83400
C161        C  0.87934899  0.80081134  0.12006082     1.11700
O162        O  0.91955553  0.93329073  0.12272105    -0.96500
Zr163      Zr  0.89549614  0.89978232  0.13065299     1.88900
O164        O  0.86211639  0.85937117  0.19849570    -0.73100
O165        O  0.93771674  0.83558578  0.11214885    -0.52400
O166        O  0.93355607  0.89140138  0.15739389    -0.97100
O167        O  0.88255045  0.93208647  0.17352749    -0.54300
O168        O  0.88992070  0.88595026  0.20242063    -0.73700
C169        C  0.87650929  0.87148375  0.21963482     0.98700
O170        O  0.82201894  0.83084735  0.16129523    -0.62500
O171        O  0.81209868  0.92074100  0.00914399    -0.57300
O172        O  0.81039130  0.86417983  0.12756686    -0.94000
O173        O  0.80425410  0.89694208  0.09010520    -0.92400
O174        O  0.81763348  0.86886527  0.95699691    -0.92700
O175        O  0.81728101  0.82841510  0.00043050    -0.91500
C176        C  0.79750916  0.88016753  0.11287892     1.17500
H177        H  0.84929599  0.90099769  0.97250190     0.33500
H178        H  0.86256788  0.82101155  0.05558551     0.44300
H179        H  0.84762569  0.89968202  0.15196208     0.37800
H180        H  0.92811655  0.88807196  0.07026896     0.34300
H181        H  0.84913369  0.81507955  0.93888246     0.26100
H182        H  0.94796775  0.84891320  0.11004157     0.32100
H183        H  0.93510769  0.90097640  0.18332687     0.38000
H184        H  0.81803097  0.86141185  0.92857644     0.32400
H185        H  0.80199001  0.90738339  0.00565870     0.31300
H186        H  0.81393609  0.94414105  0.10130158     0.33000
H187        H  0.89463839  0.93428337  0.19529000     0.31900
H188        H  0.81099625  0.83127540  0.02933291     0.35900
H189        H  0.81789574  0.81828929  0.14163837     0.28700
H190        H  0.92461214  0.91675769  0.93511598     0.32900
H191        H  0.91792817  0.93776312  0.09231122     0.35800
H192        H  0.80258661  0.93221850  0.02400493     0.28400
H193        H  0.83010456  0.82339465  0.18536838     0.41200
H194        H  0.92721538  0.80366775  0.03117476     0.31300
H195        H  0.87321837  0.81466267  0.96054772     0.38900
H196        H  0.86933981  0.92651607  0.19012774     0.30800
H197        H  0.93109648  0.83672960  0.14119992     0.30800
H198        H  0.93083365  0.93061401  0.97654894     0.31100
Zr199      Zr  0.89991963  0.89525842  0.50236747     2.17500
O200        O  0.92265608  0.92383926  0.46505375    -0.51300
O201        O  0.89124981  0.88650434  0.42701927    -0.74500
O202        O  0.94010603  0.88493159  0.49500926    -0.81300
O203        O  0.85417749  0.93967031  0.53011659    -0.83000
O204        O  0.94665740  0.85087946  0.52744961    -0.78600
O205        O  0.88921048  0.93548625  0.50006075    -0.90300
O206        O  0.86555037  0.85777763  0.42407000    -0.76200
O207        O  0.89654671  0.85484259  0.49994457    -0.85700
O208        O  0.86008126  0.88769033  0.49753122    -0.85400
O209        O  0.91641749  0.88182672  0.56864230    -0.72200
O210        O  0.88347605  0.91114245  0.56623284    -0.84300
Zr211      Zr  0.85548787  0.84816749  0.62468109     2.26400
Zr212      Zr  0.91215279  0.84117464  0.56618994     2.06300
Zr213      Zr  0.84368273  0.90310292  0.56149387     2.10000
Zr214      Zr  0.85677942  0.84717895  0.49643949     1.78800
O215        O  0.83159995  0.93188356  0.61290536    -0.93100
O216        O  0.87238486  0.81255449  0.46483918    -0.40900
O217        O  0.83945027  0.86254993  0.55921968    -0.77500
O218        O  0.87240264  0.83227414  0.56114388    -0.96200
O219        O  0.89520161  0.85595130  0.63016619    -0.89500
O220        O  0.85882224  0.88869568  0.62757828    -0.92400
C221        C  0.87846191  0.87249716  0.40629961     1.01400
C222        C  0.87182087  0.94753240  0.51079033     1.14300
C223        C  0.95318153  0.86837770  0.50615274     1.05100
O224        O  0.92198915  0.80811061  0.52282021    -0.94500
O225        O  0.90519007  0.80698680  0.60804858    -0.90300
O226        O  0.87097477  0.81012204  0.64084595    -0.83400
C227        C  0.88918771  0.79884750  0.63150867     1.11700
O228        O  0.92745032  0.92579263  0.63650039    -0.96500
Zr229      Zr  0.89857659  0.89622919  0.63186093     1.88900
O230        O  0.86161863  0.85744766  0.70019312    -0.73100
O231        O  0.94462216  0.83706837  0.61424694    -0.52400
O232        O  0.93446480  0.88377919  0.66350463    -0.97100
O233        O  0.88672330  0.93259671  0.66220630    -0.54300
O234        O  0.88738146  0.88624867  0.70374405    -0.73700
C235        C  0.87398905  0.87175238  0.72094187     0.98700
O236        O  0.83027553  0.81721286  0.64571242    -0.62500
O237        O  0.81268257  0.91263439  0.51263471    -0.57300
O238        O  0.81509557  0.85876833  0.63113358    -0.94000
O239        O  0.80767614  0.88959466  0.58913449    -0.92400
O240        O  0.81974302  0.85362119  0.46354842    -0.92700
O241        O  0.82986975  0.81573510  0.50044029    -0.91500
C242        C  0.80152308  0.87352822  0.61435476     1.17500
H243        H  0.85338995  0.89464022  0.47245697     0.33500
H244        H  0.87013669  0.81600052  0.56009197     0.44300
H245        H  0.85062481  0.89492308  0.65169759     0.37800
H246        H  0.93220898  0.88609144  0.57141515     0.34300
H247        H  0.86315602  0.80998686  0.43872536     0.26100
H248        H  0.95479284  0.82604779  0.59972313     0.32100
H249        H  0.93293353  0.88689193  0.69451075     0.38000
H250        H  0.81503870  0.86886943  0.47383396     0.32400
H251        H  0.80543862  0.92633342  0.52519119     0.31300
H252        H  0.81948899  0.94057438  0.59799213     0.33000
H253        H  0.87308352  0.92905915  0.67953619     0.31900
H254        H  0.82416670  0.81613824  0.53024230     0.35900
H255        H  0.82203119  0.82258035  0.67146045     0.28700
H256        H  0.92995316  0.91585511  0.44072769     0.32900
H257        H  0.93138070  0.92898794  0.60633352     0.35800
H258        H  0.82015727  0.91819752  0.48630487     0.28400
H259        H  0.81858497  0.81600489  0.62293349     0.41200
H260        H  0.90807567  0.79859911  0.52262144     0.31300
H261        H  0.88757058  0.81697571  0.45391126     0.38900
H262        H  0.88074730  0.94138989  0.63757160     0.30800
H263        H  0.95283235  0.85174892  0.61239843     0.30800
H264        H  0.93530447  0.92785604  0.48464757     0.31100
Zr265      Zr  0.85305665  0.14849306  0.36863958     2.17500
O266        O  0.82642750  0.17357011  0.33126361    -0.51300
O267        O  0.86004962  0.14148735  0.29226879    -0.74500
O268        O  0.86519752  0.18855546  0.36741824    -0.81300
O269        O  0.80717036  0.10374797  0.39553967    -0.83000
O270        O  0.89953697  0.19292659  0.40026796    -0.78600
O271        O  0.81200830  0.13974740  0.37053377    -0.90300
O272        O  0.89205738  0.12002093  0.28571167    -0.76200
O273        O  0.89347267  0.14427991  0.36573917    -0.85700
O274        O  0.85990493  0.10877910  0.35722207    -0.85400
O275        O  0.86726779  0.16193450  0.43681747    -0.72200
O276        O  0.83687737  0.12900698  0.42877365    -0.84300
Zr277      Zr  0.89886396  0.09819608  0.48383877     2.26400
Zr278      Zr  0.90788481  0.15662056  0.43387055     2.06300
Zr279      Zr  0.84432794  0.08949587  0.41808293     2.10000
Zr280      Zr  0.90028406  0.10468114  0.35560511     1.78800
O281        O  0.81503672  0.07055324  0.46006292    -0.93100
O282        O  0.93677209  0.11778287  0.32798363    -0.40900
O283        O  0.88462705  0.08498889  0.41580732    -0.77500
O284        O  0.91541308  0.11706290  0.42281262    -0.96200
O285        O  0.89151521  0.13775186  0.49399580    -0.89500
O286        O  0.85842838  0.10215130  0.48596126    -0.92400
C287        C  0.87563211  0.13164869  0.26998761     1.01400
C288        C  0.79935252  0.12255204  0.38026399     1.14300
C289        C  0.88221378  0.20071602  0.37986684     1.05100
O290        O  0.94041199  0.16814263  0.39070375    -0.94500
O291        O  0.94227981  0.14598258  0.47375037    -0.90300
O292        O  0.93663942  0.11186715  0.50628813    -0.83400
C293        C  0.94916038  0.12923925  0.49718041     1.11700
O294        O  0.81835119  0.16702093  0.48909498    -0.96500
Zr295      Zr  0.85113083  0.14165282  0.49583567     1.88900
O296        O  0.89156828  0.10402077  0.56096607    -0.73100
O297        O  0.91317937  0.18576036  0.48843559    -0.52400
O298        O  0.85506422  0.17693092  0.53636197    -0.97100
O299        O  0.81808079  0.12333116  0.52843328    -0.54300
O300        O  0.86485927  0.13206778  0.56610541    -0.73700
C301        C  0.87895667  0.11792911  0.58265375     0.98700
O302        O  0.92852638  0.06909171  0.48059779    -0.62500
O303        O  0.83433560  0.06400060  0.35936276    -0.57300
O304        O  0.88472677  0.05942989  0.49650382    -0.94000
O305        O  0.85797244  0.05313650  0.44584276    -0.92400
O306        O  0.89098716  0.07235468  0.30978079    -0.92700
O307        O  0.92805465  0.07384226  0.35853286    -0.91500
C308        C  0.87130823  0.04603373  0.47568892     1.17500
H309        H  0.85283085  0.10358323  0.33108449     0.33500
H310        H  0.93161554  0.11424110  0.42183420     0.44300
H311        H  0.85230105  0.09319905  0.50913767     0.37800
H312        H  0.86345154  0.17769148  0.44184980     0.34300
H313        H  0.93773416  0.11122164  0.29883330     0.26100
H314        H  0.92420157  0.19655605  0.47573010     0.32100
H315        H  0.85528950  0.18929370  0.51482388     0.38000
H316        H  0.87810801  0.07746120  0.29163811     0.32400
H317        H  0.82527415  0.07335648  0.33916405     0.31300
H318        H  0.81809194  0.07480060  0.49017344     0.33000
H319        H  0.81023252  0.13549087  0.54472308     0.31900
H320        H  0.92215930  0.06332730  0.38065320     0.35900
H321        H  0.92228867  0.05659494  0.46285587     0.28700
H322        H  0.83535747  0.18120987  0.30857378     0.32900
H323        H  0.80793129  0.15920489  0.46893345     0.35800
H324        H  0.84884158  0.06097806  0.34428988     0.28400
H325        H  0.94039010  0.07573261  0.46190847     0.41200
H326        H  0.95122809  0.15520252  0.39226220     0.31300
H327        H  0.93464511  0.13432192  0.32317057     0.38900
H328        H  0.82430324  0.11313304  0.55082860     0.30800
H329        H  0.89858765  0.19424761  0.48904465     0.30800
H330        H  0.82241589  0.18578419  0.35179997     0.31100
Zr331      Zr  0.89833248  0.10416717  0.99018739     2.17500
O332        O  0.92303293  0.07597175  0.02436622    -0.51300
O333        O  0.88990093  0.11489509  0.06486399    -0.74500
O334        O  0.93820730  0.11639850  0.99762095    -0.81300
O335        O  0.85548640  0.05677571  0.96017990    -0.83000
O336        O  0.94256257  0.14976184  0.96137314    -0.78600
O337        O  0.88766569  0.06386448  0.99875930    -0.90300
O338        O  0.86100542  0.14069913  0.06586541    -0.76200
O339        O  0.89146269  0.14429022  0.99222024    -0.85700
O340        O  0.85792792  0.10855677  0.99194538    -0.85400
O341        O  0.91435813  0.11892378  0.92426957    -0.72200
O342        O  0.88360466  0.08653099  0.92612656    -0.84300
Zr343      Zr  0.85298821  0.14685690  0.86300785     2.26400
Zr344      Zr  0.90671493  0.15921427  0.92670685     2.06300
Zr345      Zr  0.84332083  0.09210259  0.92728499     2.10000
Zr346      Zr  0.85117403  0.14856301  0.99259176     1.78800
O347        O  0.83320276  0.06307284  0.87491867    -0.93100
O348        O  0.86139036  0.18611810  0.01959898    -0.40900
O349        O  0.83694669  0.13208774  0.92814372    -0.77500
O350        O  0.86627337  0.16462205  0.92838857    -0.96200
O351        O  0.89324281  0.14191295  0.86182597    -0.89500
O352        O  0.85887943  0.10653695  0.86179722    -0.92400
C353        C  0.87569318  0.12801351  0.08445335     1.01400
C354        C  0.87198922  0.05050819  0.98444771     1.14300
C355        C  0.95034187  0.13300030  0.98348076     1.05100
O356        O  0.91338143  0.19000167  0.97748680    -0.94500
O357        O  0.89647648  0.19399004  0.88897105    -0.90300
O358        O  0.86324578  0.18710212  0.85386536    -0.83400
C359        C  0.87944723  0.20037493  0.86602627     1.11700
O360        O  0.93045165  0.07537389  0.87570031    -0.96500
Zr361      Zr  0.89919120  0.10171886  0.86151444     1.88900
O362        O  0.86240629  0.13653890  0.78838306    -0.73100
O363        O  0.93536346  0.17415868  0.87786035    -0.52400
O364        O  0.93264312  0.11352269  0.82146377    -0.97100
O365        O  0.89310933  0.06410722  0.83119793    -0.54300
O366        O  0.88876110  0.10827592  0.78808757    -0.73700
C367        C  0.87538338  0.12212478  0.76896758     0.98700
O368        O  0.82547796  0.16719544  0.81835484    -0.62500
O369        O  0.81235280  0.08003242  0.97386712    -0.57300
O370        O  0.81229709  0.13836681  0.86561136    -0.94000
O371        O  0.80657393  0.10516396  0.90164052    -0.92400
O372        O  0.81718228  0.13760282  0.03192558    -0.92700
O373        O  0.81858659  0.17392575  0.98471370    -0.91500
C374        C  0.79947935  0.12257828  0.88069156     1.17500
H375        H  0.85162637  0.10115390  0.01685072     0.33500
H376        H  0.86209106  0.18048119  0.93030816     0.44300
H377        H  0.85166700  0.09957683  0.83726061     0.37800
H378        H  0.93034142  0.11556757  0.92146989     0.34300
H379        H  0.85054657  0.18899189  0.04324644     0.26100
H380        H  0.94998353  0.17391354  0.89365445     0.32100
H381        H  0.93554521  0.10092039  0.80109145     0.38000
H382        H  0.81571002  0.12097658  0.02749058     0.32400
H383        H  0.80611865  0.06622345  0.95994290     0.31300
H384        H  0.84708310  0.05363087  0.87193134     0.33000
H385        H  0.90195424  0.06404226  0.80423176     0.31900
H386        H  0.81673182  0.17571145  0.95339521     0.35900
H387        H  0.82051833  0.18056356  0.83530144     0.28700
H388        H  0.92993524  0.08368996  0.04940704     0.32900
H389        H  0.92903574  0.07159068  0.90646887     0.35800
H390        H  0.81975368  0.07436150  0.00029808     0.28400
H391        H  0.83436136  0.17365512  0.79434733     0.41200
H392        H  0.91987409  0.18257068  0.00321852     0.31300
H393        H  0.87623655  0.18386286  0.03409228     0.38900
H394        H  0.87699353  0.06419481  0.82196900     0.30800
H395        H  0.93692693  0.16247574  0.85521635     0.30800
H396        H  0.93579150  0.07330821  0.00424324     0.31100
Zr397      Zr  0.64697725  0.15063202  0.37453851     2.17500
O398        O  0.67464526  0.17187291  0.41717064    -0.51300
O399        O  0.63798647  0.14116583  0.44943282    -0.74500
O400        O  0.63597824  0.19058835  0.38348671    -0.81300
O401        O  0.69372680  0.10880483  0.33313308    -0.83000
O402        O  0.60189798  0.19670153  0.35061705    -0.78600
O403        O  0.68804970  0.14128581  0.37163156    -0.90300
O404        O  0.60838938  0.11660905  0.45255719    -0.76200
O405        O  0.60677926  0.14483149  0.37943834    -0.85700
O406        O  0.64165617  0.11044236  0.37733620    -0.85400
O407        O  0.63116967  0.16764275  0.31029183    -0.72200
O408        O  0.66231131  0.13594018  0.30890044    -0.84300
Zr409      Zr  0.60027168  0.10642824  0.25206258     2.26400
Zr410      Zr  0.59072197  0.16121228  0.31578069     2.06300
Zr411      Zr  0.65640611  0.09578824  0.31134918     2.10000
Zr412      Zr  0.60159430  0.10457368  0.38040868     1.78800
O413        O  0.68287501  0.08091033  0.25825533    -0.93100
O414        O  0.56385889  0.11004701  0.41096042    -0.40900
O415        O  0.61628457  0.08949714  0.31529735    -0.77500
O416        O  0.58458785  0.12086615  0.31825980    -0.96200
O417        O  0.60581266  0.14661754  0.24978217    -0.89500
O418        O  0.64049084  0.11174782  0.24719364    -0.92400
C419        C  0.62331684  0.12925623  0.47031705     1.01400
C420        C  0.70093468  0.12569649  0.35532554     1.14300
C421        C  0.61930163  0.20351312  0.37216594     1.05100
O422        O  0.56236181  0.16843771  0.37108377    -0.94500
O423        O  0.55477060  0.15150536  0.28016427    -0.90300
O424        O  0.56027420  0.11771807  0.24595130    -0.83400
C425        C  0.54754858  0.13427043  0.25857871     1.11700
O426        O  0.67486619  0.18162885  0.25062237    -0.96500
Zr427      Zr  0.64598736  0.15192906  0.24567546     1.88900
O428        O  0.60927713  0.11458782  0.17682542    -0.73100
O429        O  0.57685236  0.19247171  0.27150685    -0.52400
O430        O  0.63228306  0.18722230  0.21344399    -0.97100
O431        O  0.68264642  0.14218155  0.21382543    -0.54300
O432        O  0.63680816  0.14162801  0.17316632    -0.73700
C433        C  0.62286896  0.12766806  0.15597046     0.98700
O434        O  0.57302429  0.08321041  0.21224508    -0.62500
O435        O  0.67113524  0.07015085  0.36619045    -0.57300
O436        O  0.60966752  0.06555593  0.25199723    -0.94000
O437        O  0.64293869  0.05900036  0.28734607    -0.92400
O438        O  0.61767866  0.07128646  0.41579240    -0.92700
O439        O  0.57542215  0.07257602  0.37454653    -0.91500
C440        C  0.62540962  0.05225598  0.26633656     1.17500
H441        H  0.64940297  0.10399369  0.40181387     0.33500
H442        H  0.56868974  0.11721574  0.32167006     0.44300
H443        H  0.64674514  0.10430349  0.22224791     0.37800
H444        H  0.63487199  0.18355855  0.30740426     0.34300
H445        H  0.56438499  0.10202004  0.43881225     0.26100
H446        H  0.56645945  0.20116859  0.29040420     0.32100
H447        H  0.61631838  0.18409541  0.20505050     0.38000
H448        H  0.61073377  0.07116522  0.44464431     0.32400
H449        H  0.65789656  0.06087433  0.37493828     0.31300
H450        H  0.68990690  0.06742288  0.27201817     0.33000
H451        H  0.68052432  0.14373040  0.18252652     0.31900
H452        H  0.58027870  0.06435522  0.34842024     0.35900
H453        H  0.58191145  0.07566841  0.18934673     0.28700
H454        H  0.66586857  0.17911428  0.44057051     0.32900
H455        H  0.67679441  0.18748195  0.22112607     0.35800
H456        H  0.68117214  0.05939625  0.35067817     0.28400
H457        H  0.56838200  0.07075754  0.23172430     0.41200
H458        H  0.54742008  0.16554496  0.35741505     0.31300
H459        H  0.56322361  0.12642845  0.41837506     0.38900
H460        H  0.68446511  0.12561531  0.21866488     0.30800
H461        H  0.59017212  0.20256725  0.26751308     0.30800
H462        H  0.67973991  0.18465278  0.39893728     0.31100
Zr463      Zr  0.64814457  0.14785353  0.87505073     2.17500
O464        O  0.67513287  0.16983384  0.91780105    -0.51300
O465        O  0.63992301  0.13804965  0.94992512    -0.74500
O466        O  0.63670430  0.18801082  0.88217533    -0.81300
O467        O  0.69463671  0.10520563  0.83759825    -0.83000
O468        O  0.60268852  0.19341978  0.84876834    -0.78600
O469        O  0.68907656  0.13912208  0.87118481    -0.90300
O470        O  0.60891560  0.11506473  0.95272897    -0.76200
O471        O  0.60800888  0.14206346  0.87857361    -0.85700
O472        O  0.64270591  0.10763287  0.87908143    -0.85400
O473        O  0.63325022  0.16427849  0.80976165    -0.72200
O474        O  0.66391364  0.13218987  0.81065605    -0.84300
Zr475      Zr  0.60269364  0.10238613  0.75202352     2.26400
Zr476      Zr  0.59292542  0.15776475  0.81358712     2.06300
Zr477      Zr  0.65782891  0.09216446  0.81405115     2.10000
Zr478      Zr  0.60261887  0.10181043  0.88086425     1.78800
O479        O  0.68720673  0.07831149  0.76561095    -0.93100
O480        O  0.56475248  0.10889199  0.90992969    -0.40900
O481        O  0.61768919  0.08589969  0.81650117    -0.77500
O482        O  0.58645239  0.11745235  0.81716820    -0.96200
O483        O  0.60851683  0.14252307  0.74866389    -0.89500
O484        O  0.64297553  0.10760642  0.74866790    -0.92400
C485        C  0.62444234  0.12705210  0.97038932     1.01400
C486        C  0.70193594  0.12297245  0.85698833     1.14300
C487        C  0.61988886  0.20066358  0.87027223     1.05100
O488        O  0.56213186  0.16481549  0.86405227    -0.94500
O489        O  0.55771201  0.14860542  0.77649282    -0.90300
O490        O  0.56302025  0.11448886  0.74335956    -0.83400
C491        C  0.55051121  0.13145397  0.75484122     1.11700
O492        O  0.67813641  0.17678366  0.75319728    -0.96500
Zr493      Zr  0.64869670  0.14779803  0.74636899     1.88900
O494        O  0.61271837  0.10987255  0.67719816    -0.73100
O495        O  0.58238828  0.18904759  0.76624285    -0.52400
O496        O  0.63632879  0.18352728  0.71411083    -0.97100
O497        O  0.68551571  0.13891547  0.71465742    -0.54300
O498        O  0.63961218  0.13749597  0.67381901    -0.73700
C499        C  0.62594209  0.12332597  0.65637327     0.98700
O500        O  0.57516550  0.07968594  0.71188488    -0.62500
O501        O  0.66879655  0.06462204  0.86878693    -0.57300
O502        O  0.61182039  0.06141135  0.75275872    -0.94000
O503        O  0.64604383  0.05596586  0.78526085    -0.92400
O504        O  0.61762477  0.06790602  0.91614799    -0.92700
O505        O  0.57681763  0.06940941  0.87744387    -0.91500
C506        C  0.62831080  0.04862022  0.76574310     1.17500
H507        H  0.65020114  0.10133618  0.90395733     0.33500
H508        H  0.57046008  0.11399024  0.81975673     0.44300
H509        H  0.64955540  0.09992153  0.72427907     0.37800
H510        H  0.63688214  0.18020104  0.80664466     0.34300
H511        H  0.56461429  0.10095456  0.93789613     0.26100
H512        H  0.57138847  0.19826607  0.78292699     0.32100
H513        H  0.62288769  0.17948897  0.69649959     0.38000
H514        H  0.62299024  0.07307676  0.94458433     0.32400
H515        H  0.67815184  0.05319538  0.85345217     0.31300
H516        H  0.69483060  0.06580827  0.78139911     0.33000
H517        H  0.68537525  0.14663966  0.68649035     0.31900
H518        H  0.57842983  0.06351630  0.84790070     0.35900
H519        H  0.58379046  0.07301101  0.68775980     0.28700
H520        H  0.66602661  0.17741953  0.94035444     0.32900
H521        H  0.68718412  0.17206723  0.77849038     0.35800
H522        H  0.67976479  0.07263849  0.88757161     0.28400
H523        H  0.57111564  0.06660583  0.73034114     0.41200
H524        H  0.56980838  0.16896286  0.89119390     0.31300
H525        H  0.56472796  0.12527804  0.91740929     0.38900
H526        H  0.68474171  0.12247492  0.70783021     0.30800
H527        H  0.59618967  0.19866527  0.76433517     0.30800
H528        H  0.68044023  0.18232283  0.89907446     0.31100
Zr529      Zr  0.14532166  0.85039483  0.12526561     2.17500
O530        O  0.16715032  0.82183370  0.16465574    -0.51300
O531        O  0.13685199  0.86076381  0.19975472    -0.74500
O532        O  0.18586396  0.86133900  0.13304627    -0.81300
O533        O  0.10113976  0.80442217  0.09276647    -0.83000
O534        O  0.19081263  0.89572357  0.10108030    -0.78600
O535        O  0.13409758  0.81027500  0.12961600    -0.90300
O536        O  0.10634525  0.88447706  0.20321270    -0.76200
O537        O  0.13833351  0.89026483  0.13037487    -0.85700
O538        O  0.10484350  0.85486664  0.12668078    -0.85400
O539        O  0.16195081  0.86586785  0.06085288    -0.72200
O540        O  0.13064432  0.83424245  0.05985723    -0.84300
Zr541      Zr  0.10060261  0.89690481  0.00236132     2.26400
Zr542      Zr  0.15493381  0.90606445  0.06679189     2.06300
Zr543      Zr  0.09030016  0.84025051  0.06050856     2.10000
Zr544      Zr  0.09782435  0.89457632  0.13071883     1.78800
O545        O  0.08166616  0.81164892  0.00641226    -0.93100
O546        O  0.10610358  0.93000172  0.16815002    -0.40900
O547        O  0.08331568  0.88022202  0.06477807    -0.77500
O548        O  0.11442430  0.91193696  0.06960287    -0.96200
O549        O  0.14083308  0.89103610  0.00036132    -0.89500
O550        O  0.10614410  0.85670325  0.99708051    -0.92400
C551        C  0.12203439  0.87256024  0.22054434     1.01400
C552        C  0.11782631  0.79749709  0.11592247     1.14300
C553        C  0.19839650  0.87840300  0.12189500     1.05100
O554        O  0.16639677  0.93537945  0.11751242    -0.94500
O555        O  0.14381191  0.94291991  0.03802944    -0.90300
O556        O  0.11110779  0.93756549  0.00009374    -0.83400
C557        C  0.12697249  0.95030244  0.01564227     1.11700
O558        O  0.17538362  0.82126234  0.00246318    -0.96500
Zr559      Zr  0.14620371  0.85070052  0.99649234     1.88900
O560        O  0.11087305  0.88880933  0.92738590    -0.73100
O561        O  0.18405821  0.91780014  0.01588289    -0.52400
O562        O  0.18228871  0.85952090  0.96207649    -0.97100
O563        O  0.13184724  0.81561442  0.96423813    -0.54300
O564        O  0.13869745  0.86198833  0.92402917    -0.73700
C565        C  0.12474699  0.87588594  0.90653468     0.98700
O566        O  0.07378635  0.92000232  0.96111428    -0.62500
O567        O  0.06063782  0.82656544  0.10853258    -0.57300
O568        O  0.05998424  0.88701291  0.99880155    -0.94000
O569        O  0.05417370  0.85261455  0.03036713    -0.92400
O570        O  0.06240729  0.88078201  0.16163499    -0.92700
O571        O  0.06723966  0.92236761  0.12265950    -0.91500
C572        C  0.04708595  0.87036035  0.01029014     1.17500
H573        H  0.09825989  0.84688501  0.15069620     0.33500
H574        H  0.11037735  0.92763678  0.07430862     0.44300
H575        H  0.09876479  0.85075691  0.97179525     0.37800
H576        H  0.17793335  0.86245479  0.05786259     0.34300
H577        H  0.09557234  0.93014993  0.19288023     0.26100
H578        H  0.18985049  0.93242440  0.02732236     0.32100
H579        H  0.18611556  0.87500959  0.97226497     0.38000
H580        H  0.05278068  0.87680984  0.13669724     0.32400
H581        H  0.04856276  0.83834650  0.10808948     0.31300
H582        H  0.06856788  0.80311587  0.01819859     0.33000
H583        H  0.14476181  0.80928256  0.94769756     0.31900
H584        H  0.07120053  0.93113872  0.09667381     0.35900
H585        H  0.06905639  0.93259854  0.98026309     0.28700
H586        H  0.17377112  0.82996352  0.18949330     0.32900
H587        H  0.18143119  0.82282457  0.03189883     0.35800
H588        H  0.05382785  0.81338186  0.09347497     0.28400
H589        H  0.08290608  0.92735207  0.93835862     0.41200
H590        H  0.15959277  0.93072075  0.14510587     0.31300
H591        H  0.12135456  0.92764982  0.18100883     0.38900
H592        H  0.12083457  0.82052798  0.94203845     0.30800
H593        H  0.19682170  0.90697663  0.02008910     0.30800
H594        H  0.18031330  0.81795569  0.14631405     0.31100
Zr595      Zr  0.10402560  0.89801469  0.50164353     2.17500
O596        O  0.07778079  0.92035774  0.45780122    -0.51300
O597        O  0.11294772  0.88969414  0.42685619    -0.74500
O598        O  0.11491887  0.93889053  0.50010184    -0.81300
O599        O  0.05852353  0.85161962  0.52239381    -0.83000
O600        O  0.14794842  0.94279813  0.53685197    -0.78600
O601        O  0.06369722  0.88768931  0.49785568    -0.90300
O602        O  0.14122637  0.86337667  0.42264482    -0.76200
O603        O  0.14416073  0.89177802  0.49908158    -0.85700
O604        O  0.10936992  0.85772827  0.49591033    -0.85400
O605        O  0.11769915  0.91275547  0.56901229    -0.72200
O606        O  0.08657235  0.88105609  0.56362089    -0.84300
Zr607      Zr  0.14793352  0.85037493  0.62433549     2.26400
Zr608      Zr  0.15802434  0.90610614  0.56615365     2.06300
Zr609      Zr  0.09336481  0.84096430  0.55892010     2.10000
Zr610      Zr  0.14928092  0.85143560  0.49491364     1.78800
O611        O  0.06128650  0.83182941  0.60508338    -0.93100
O612        O  0.18636710  0.85950481  0.46345655    -0.40900
O613        O  0.13360127  0.83471654  0.55820357    -0.77500
O614        O  0.16465913  0.86593223  0.56010698    -0.96200
O615        O  0.14145346  0.89026887  0.62962126    -0.89500
O616        O  0.10756703  0.85533043  0.62552891    -0.92400
C617        C  0.12672980  0.87694840  0.40572552     1.01400
C618        C  0.05124176  0.87010817  0.50524988     1.14300
C619        C  0.13134408  0.95114543  0.51527046     1.05100
O620        O  0.18913637  0.91535519  0.51765617    -0.94500
O621        O  0.19339572  0.89657631  0.60120495    -0.90300
O622        O  0.18823436  0.86189266  0.63226691    -0.83400
C623        C  0.20062500  0.87909410  0.62158562     1.11700
O624        O  0.07305627  0.92571854  0.62177136    -0.96500
Zr625      Zr  0.10103783  0.89524708  0.62994205     1.88900
O626        O  0.13759398  0.85877509  0.69917763    -0.73100
O627        O  0.16909430  0.93528278  0.61757513    -0.52400
O628        O  0.11215508  0.92959214  0.66849350    -0.97100
O629        O  0.06347149  0.88414220  0.65558976    -0.54300
O630        O  0.10830490  0.88394554  0.70265453    -0.73700
C631        C  0.12303353  0.87085594  0.72017943     0.98700
O632        O  0.17098041  0.82292147  0.66416936    -0.62500
O633        O  0.08570533  0.80949791  0.51006165    -0.57300
O634        O  0.13748139  0.81005811  0.62590693    -0.94000
O635        O  0.10320792  0.80524254  0.59311568    -0.92400
O636        O  0.13539020  0.81694310  0.46034772    -0.92700
O637        O  0.17683666  0.82042580  0.49843523    -0.91500
C638        C  0.12049709  0.79772777  0.61401669     1.17500
H639        H  0.10210325  0.85179595  0.47049365     0.33500
H640        H  0.18061506  0.86241862  0.55735007     0.44300
H641        H  0.10083185  0.84724008  0.64925594     0.37800
H642        H  0.11385228  0.92851354  0.57377433     0.34300
H643        H  0.18605875  0.85201438  0.43504887     0.26100
H644        H  0.17884298  0.94592638  0.60124456     0.32100
H645        H  0.12672604  0.92565581  0.68272728     0.38000
H646        H  0.13280270  0.80606857  0.48406352     0.32400
H647        H  0.07147590  0.80255245  0.52088212     0.31300
H648        H  0.05291083  0.81970307  0.58968208     0.33000
H649        H  0.06274924  0.88993751  0.68530950     0.31900
H650        H  0.17921981  0.81793307  0.52944963     0.35900
H651        H  0.18403289  0.81908844  0.64543206     0.28700
H652        H  0.08721158  0.93091596  0.44065510     0.32900
H653        H  0.06764351  0.92925930  0.65103215     0.35800
H654        H  0.08125559  0.81669384  0.48264876     0.28400
H655        H  0.17766449  0.83148334  0.68843434     0.41200
H656        H  0.18197477  0.91689484  0.48909194     0.31300
H657        H  0.18601343  0.87600371  0.45698983     0.38900
H658        H  0.06416612  0.86738821  0.65870102     0.30800
H659        H  0.15494889  0.94397342  0.62330655     0.30800
H660        H  0.06933584  0.93015574  0.47803212     0.31100
Zr661      Zr  0.39650810  0.89265719  0.26323225     2.17500
O662        O  0.42233814  0.91231803  0.31201208    -0.51300
O663        O  0.38469510  0.88311810  0.33660810    -0.74500
O664        O  0.38598058  0.93361271  0.26951307    -0.81300
O665        O  0.44349680  0.84956323  0.22867939    -0.83000
O666        O  0.35292421  0.93897929  0.23322153    -0.78600
O667        O  0.43726106  0.88273718  0.26463444    -0.90300
O668        O  0.35941429  0.85395085  0.33684283    -0.76200
O669        O  0.35641164  0.88672709  0.26327860    -0.85700
O670        O  0.39117016  0.85219398  0.26308840    -0.85400
O671        O  0.38342831  0.90991117  0.19748396    -0.72200
O672        O  0.41369304  0.87803240  0.19885482    -0.84300
Zr673      Zr  0.35209324  0.85013738  0.13357093     2.26400
Zr674      Zr  0.34306507  0.90369918  0.19790082     2.06300
Zr675      Zr  0.40721866  0.83785785  0.19768999     2.10000
Zr676      Zr  0.35111992  0.84638022  0.26273970     1.78800
O677        O  0.43725150  0.82754866  0.14752803    -0.93100
O678        O  0.31487733  0.85722087  0.29496439    -0.40900
O679        O  0.36685296  0.83207844  0.19744640    -0.77500
O680        O  0.33586338  0.86348604  0.19986315    -0.96200
O681        O  0.35927734  0.88994142  0.13262480    -0.89500
O682        O  0.39268895  0.85454546  0.13311249    -0.92400
C683        C  0.37180900  0.86868850  0.35587838     1.01400
C684        C  0.45039882  0.86672819  0.25074611     1.14300
C685        C  0.36951417  0.94644625  0.25599388     1.05100
O686        O  0.31153968  0.91792259  0.24067281    -0.94500
O687        O  0.30641144  0.89389322  0.16765848    -0.90300
O688        O  0.31109746  0.86185884  0.12845823    -0.83400
C689        C  0.29840252  0.87800349  0.14386837     1.11700
O690        O  0.42695436  0.92566281  0.13684632    -0.96500
Zr691      Zr  0.39972027  0.89439087  0.13398469     1.88900
O692        O  0.36264069  0.86137337  0.06010271    -0.73100
O693        O  0.33739730  0.93214371  0.14207049    -0.52400
O694        O  0.38764634  0.92909875  0.09758980    -0.97100
O695        O  0.43836678  0.88421342  0.11273191    -0.54300
O696        O  0.39406454  0.88382826  0.06046485    -0.73700
C697        C  0.37848931  0.87268979  0.04108645     0.98700
O698        O  0.33112389  0.82441942  0.08656862    -0.62500
O699        O  0.41791855  0.80751080  0.24703678    -0.57300
O700        O  0.36170228  0.80965373  0.12951235    -0.94000
O701        O  0.39570255  0.80275205  0.16212561    -0.92400
O702        O  0.36275569  0.80977636  0.29233228    -0.92700
O703        O  0.32185042  0.81727767  0.25454897    -0.91500
C704        C  0.37813643  0.79640241  0.14061255     1.17500
H705        H  0.39832328  0.84517434  0.28765709     0.33500
H706        H  0.31996958  0.85983410  0.20289157     0.44300
H707        H  0.39943353  0.84720573  0.10850668     0.37800
H708        H  0.38729490  0.92578218  0.19494050     0.34300
H709        H  0.31334993  0.84725874  0.32036572     0.26100
H710        H  0.32838650  0.92441004  0.11954087     0.32100
H711        H  0.37389864  0.92474982  0.08111186     0.38000
H712        H  0.36441232  0.79963328  0.26719452     0.32400
H713        H  0.40539113  0.79628814  0.24527778     0.31300
H714        H  0.44238569  0.81224149  0.15677119     0.33000
H715        H  0.43645209  0.87244847  0.09034071     0.31900
H716        H  0.31336198  0.82156522  0.22834747     0.35900
H717        H  0.32173322  0.81493158  0.10577362     0.28700
H718        H  0.41249393  0.92093039  0.33203729     0.32900
H719        H  0.42166298  0.93572757  0.16025002     0.35800
H720        H  0.43100996  0.79984254  0.23316215     0.28400
H721        H  0.32014645  0.83390877  0.07034839     0.41200
H722        H  0.30809613  0.90545467  0.26093573     0.31300
H723        H  0.31755073  0.87257839  0.30704480     0.38900
H724        H  0.44481036  0.87584526  0.13746737     0.30800
H725        H  0.32674134  0.94335150  0.15474839     0.30800
H726        H  0.42996342  0.92408072  0.29455762     0.31100
Zr727      Zr  0.39936430  0.89839105  0.75633658     2.17500
O728        O  0.42744358  0.92247973  0.79205430    -0.51300
O729        O  0.39193139  0.89140836  0.83299592    -0.74500
O730        O  0.38833347  0.93911867  0.75824836    -0.81300
O731        O  0.44384947  0.85196149  0.72797542    -0.83000
O732        O  0.35535496  0.94474753  0.72141410    -0.78600
O733        O  0.43963992  0.88724198  0.75706946    -0.90300
O734        O  0.36335167  0.86568115  0.83982318    -0.76200
O735        O  0.35917534  0.89394734  0.76154296    -0.85700
O736        O  0.39285675  0.85841076  0.76424307    -0.85400
O737        O  0.38467712  0.91275573  0.68923367    -0.72200
O738        O  0.41439623  0.88037773  0.69301028    -0.84300
Zr739      Zr  0.35052528  0.85064275  0.64087410     2.26400
Zr740      Zr  0.34415295  0.90794719  0.69494623     2.06300
Zr741      Zr  0.40691787  0.84058681  0.70031252     2.10000
Zr742      Zr  0.35267509  0.85405640  0.76898453     1.78800
O743        O  0.43600120  0.82937965  0.64895998    -0.93100
O744        O  0.31746912  0.86699510  0.80260635    -0.40900
O745        O  0.36654902  0.83550859  0.70596299    -0.77500
O746        O  0.33610248  0.86824496  0.70504162    -0.96200
O747        O  0.35816044  0.89014039  0.63120027    -0.89500
O748        O  0.39082867  0.85434393  0.63492851    -0.92400
C749        C  0.37817992  0.87921710  0.85547506     1.01400
C750        C  0.45182520  0.86995353  0.74591476     1.14300
C751        C  0.37231673  0.95198219  0.74326755     1.05100
O752        O  0.31724460  0.92413489  0.74578025    -0.94500
O753        O  0.30702127  0.89823636  0.66641956    -0.90300
O754        O  0.31067345  0.86354020  0.63503276    -0.83400
C755        C  0.29872054  0.88087298  0.64698027     1.11700
O756        O  0.43089608  0.91972252  0.62380565    -0.96500
Zr757      Zr  0.39853277  0.89378640  0.62708010     1.88900
O758        O  0.35665521  0.85776843  0.56436379    -0.73100
O759        O  0.33406200  0.93513954  0.63905726    -0.52400
O760        O  0.38980940  0.93073298  0.59550346    -0.97100
O761        O  0.43216006  0.87791857  0.59210983    -0.54300
O762        O  0.38479104  0.88403336  0.55674981    -0.73700
C763        C  0.36979786  0.87043360  0.54162129     0.98700
O764        O  0.32466300  0.82043532  0.61825870    -0.62500
O765        O  0.41772435  0.81141104  0.75194973    -0.57300
O766        O  0.36227991  0.81101071  0.63200062    -0.94000
O767        O  0.39582512  0.80488010  0.66688697    -0.92400
O768        O  0.36391627  0.81838981  0.80272002    -0.92700
O769        O  0.32137716  0.82688045  0.76956803    -0.91500
C770        C  0.37890980  0.79820153  0.64400946     1.17500
H771        H  0.40054037  0.85238144  0.78917196     0.33500
H772        H  0.32014367  0.86536616  0.70973831     0.44300
H773        H  0.39637069  0.84564068  0.61084713     0.37800
H774        H  0.38902999  0.92833118  0.68402181     0.34300
H775        H  0.31824219  0.86135772  0.83244268     0.26100
H776        H  0.33029214  0.92583530  0.61357486     0.32100
H777        H  0.37297863  0.93150202  0.59490213     0.38000
H778        H  0.36441249  0.80721164  0.77899535     0.32400
H779        H  0.40433740  0.80123997  0.75381432     0.31300
H780        H  0.44185654  0.81460613  0.65963368     0.33000
H781        H  0.42676017  0.86452311  0.57576615     0.31900
H782        H  0.31952408  0.82235533  0.73923407     0.35900
H783        H  0.31206228  0.82037444  0.63930066     0.28700
H784        H  0.41911768  0.93045161  0.81519956     0.32900
H785        H  0.43380975  0.92229285  0.59296125     0.35800
H786        H  0.42943569  0.80220105  0.73705926     0.28400
H787        H  0.31773357  0.82578670  0.59115965     0.41200
H788        H  0.32534662  0.92435881  0.77360456     0.31300
H789        H  0.31912655  0.88371746  0.80509339     0.38900
H790        H  0.44143150  0.87146970  0.61568272     0.30800
H791        H  0.31931446  0.94173594  0.64822597     0.30800
H792        H  0.43141539  0.93453246  0.77120265     0.31100
Zr793      Zr  0.35122462  0.14614964  0.38294450     2.17500
O794        O  0.32955656  0.17214022  0.42846439    -0.51300
O795        O  0.36144973  0.13811588  0.45752813    -0.74500
O796        O  0.31083078  0.13423507  0.38929089    -0.81300
O797        O  0.39446378  0.19252912  0.35058842    -0.83000
O798        O  0.30747962  0.09918146  0.35974136    -0.78600
O799        O  0.36015212  0.18696422  0.38260245    -0.90300
O800        O  0.39256876  0.11526448  0.46188852    -0.76200
O801        O  0.35958070  0.10659695  0.39003980    -0.85700
O802        O  0.39176055  0.14270727  0.38430437    -0.85400
O803        O  0.33510604  0.12928297  0.31925193    -0.72200
O804        O  0.36501324  0.16168655  0.31633786    -0.84300
Zr805      Zr  0.39725268  0.09954295  0.26108318     2.26400
Zr806      Zr  0.34365684  0.08956728  0.32708384     2.06300
Zr807      Zr  0.40549437  0.15702637  0.31749005     2.10000
Zr808      Zr  0.40019188  0.10324929  0.38970387     1.78800
O809        O  0.41111047  0.18808320  0.26698998    -0.93100
O810        O  0.39258064  0.06865636  0.43040859    -0.40900
O811        O  0.41415867  0.11729194  0.32294239    -0.77500
O812        O  0.38426509  0.08462995  0.32871008    -0.96200
O813        O  0.35687878  0.10372438  0.25940873    -0.89500
O814        O  0.38996040  0.13944112  0.25492771    -0.92400
C815        C  0.37684616  0.12735442  0.47879047     1.01400
C816        C  0.37689498  0.19966895  0.37092092     1.14300
C817        C  0.29890644  0.11666919  0.37836588     1.05100
O818        O  0.33852081  0.05990490  0.38072315    -0.94500
O819        O  0.35344245  0.05363449  0.29475826    -0.90300
O820        O  0.38633624  0.05868054  0.25774210    -0.83400
C821        C  0.36999387  0.04607060  0.27213597     1.11700
O822        O  0.31865807  0.17102379  0.25882115    -0.96500
Zr823      Zr  0.34973860  0.14359859  0.25372001     1.88900
O824        O  0.38859215  0.10788661  0.18585151    -0.73100
O825        O  0.31216820  0.07625496  0.28285910    -0.52400
O826        O  0.31481589  0.12798676  0.22352797    -0.97100
O827        O  0.35730856  0.17954370  0.21750316    -0.54300
O828        O  0.35977289  0.13357707  0.18121707    -0.73700
C829        C  0.37477962  0.12052722  0.16438961     0.98700
O830        O  0.42479181  0.07690834  0.22090236    -0.62500
O831        O  0.43638451  0.16827184  0.36521208    -0.57300
O832        O  0.43718545  0.11172248  0.25668640    -0.94000
O833        O  0.44074792  0.14813166  0.28055121    -0.92400
O834        O  0.43642898  0.11889077  0.41376768    -0.92700
O835        O  0.42971956  0.07408142  0.38685075    -0.91500
C836        C  0.44889181  0.12992891  0.26364062     1.17500
H837        H  0.39824202  0.15122367  0.40781362     0.33500
H838        H  0.38847867  0.06888298  0.33258496     0.44300
H839        H  0.39699135  0.14575344  0.22965323     0.37800
H840        H  0.31907510  0.13220491  0.31551153     0.34300
H841        H  0.37923357  0.07237606  0.44846731     0.26100
H842        H  0.30295302  0.06649812  0.30200538     0.32100
H843        H  0.31221280  0.13683053  0.19698244     0.38000
H844        H  0.44710940  0.11617971  0.38978597     0.32400
H845        H  0.44830450  0.15647800  0.36164307     0.31300
H846        H  0.42632765  0.19428361  0.27411769     0.33000
H847        H  0.37166493  0.17703273  0.20157707     0.31900
H848        H  0.43029048  0.06952763  0.35636452     0.35900
H849        H  0.42891219  0.06392747  0.23951805     0.28700
H850        H  0.32033396  0.16248621  0.44777329     0.32900
H851        H  0.31695706  0.17384665  0.28989840     0.35800
H852        H  0.44291165  0.18208955  0.35187922     0.28400
H853        H  0.41612973  0.07011869  0.19686779     0.41200
H854        H  0.33222708  0.06783878  0.40606269     0.31300
H855        H  0.38664353  0.05763248  0.40917404     0.38900
H856        H  0.36153837  0.19021588  0.24073501     0.30800
H857        H  0.30256889  0.08987243  0.27768949     0.30800
H858        H  0.31840381  0.17971306  0.40946341     0.31100
Zr859      Zr  0.40012710  0.10304754  0.75857572     2.17500
O860        O  0.42733475  0.07956865  0.71903889    -0.51300
O861        O  0.38980311  0.11211775  0.68430733    -0.74500
O862        O  0.38948759  0.06259895  0.75361836    -0.81300
O863        O  0.44520616  0.14909847  0.78242853    -0.83000
O864        O  0.35736838  0.05643137  0.79259987    -0.78600
O865        O  0.43978299  0.11465549  0.75069921    -0.90300
O866        O  0.36093450  0.13789468  0.68268117    -0.76200
O867        O  0.35984595  0.10777330  0.75818489    -0.85700
O868        O  0.39347518  0.14307034  0.75498518    -0.85400
O869        O  0.38776178  0.08722367  0.82589413    -0.72200
O870        O  0.41783514  0.11927099  0.82110895    -0.84300
Zr871      Zr  0.35586807  0.14783396  0.88447791     2.26400
Zr872      Zr  0.34716710  0.09236729  0.82520617     2.06300
Zr873      Zr  0.40991440  0.15920660  0.81835430     2.10000
Zr874      Zr  0.35327825  0.14787845  0.75578562     1.78800
O875        O  0.44117202  0.16978613  0.86565707    -0.93100
O876        O  0.31630217  0.13658906  0.72729926    -0.40900
O877        O  0.36946480  0.16423539  0.81883662    -0.77500
O878        O  0.33881431  0.13233242  0.82057696    -0.96200
O879        O  0.36383919  0.10810427  0.88867198    -0.89500
O880        O  0.39644227  0.14406685  0.88494260    -0.92400
C881        C  0.37539840  0.12485909  0.66442531     1.01400
C882        C  0.45230308  0.13171354  0.76130425     1.14300
C883        C  0.37382641  0.04963690  0.76891220     1.05100
O884        O  0.31591705  0.07977129  0.77964312    -0.94500
O885        O  0.31156528  0.10206783  0.85979308    -0.90300
O886        O  0.31552246  0.13590250  0.89343113    -0.83400
C887        C  0.30334645  0.11862873  0.88172202     1.11700
O888        O  0.43371105  0.07498457  0.88505957    -0.96500
Zr889      Zr  0.40436464  0.10438962  0.88765915     1.88900
O890        O  0.36587028  0.13834344  0.95839417    -0.73100
O891        O  0.34026148  0.06285478  0.87835640    -0.52400
O892        O  0.39671478  0.06858317  0.92426539    -0.97100
O893        O  0.44143100  0.11820397  0.91142692    -0.54300
O894        O  0.39589623  0.11403510  0.96091828    -0.73700
C895        C  0.38052861  0.12620235  0.97879279     0.98700
O896        O  0.33700136  0.17484473  0.93190430    -0.62500
O897        O  0.41694991  0.19090746  0.76982212    -0.57300
O898        O  0.36408989  0.18877821  0.88213555    -0.94000
O899        O  0.39873170  0.19468060  0.85174627    -0.92400
O900        O  0.36523561  0.18375887  0.72391910    -0.92700
O901        O  0.32360163  0.17688513  0.75902272    -0.91500
C902        C  0.38073581  0.20169616  0.87094001     1.17500
H903        H  0.40020773  0.14955176  0.72958515     0.33500
H904        H  0.32276045  0.13552021  0.81806934     0.44300
H905        H  0.40302132  0.15216158  0.90886937     0.37800
H906        H  0.39200476  0.07145649  0.82908358     0.34300
H907        H  0.31510472  0.14430313  0.69920066     0.26100
H908        H  0.33203705  0.05071009  0.86272454     0.32100
H909        H  0.38282061  0.07143017  0.94139469     0.38000
H910        H  0.36743023  0.19420045  0.74848324     0.32400
H911        H  0.43138864  0.19770934  0.78006247     0.31300
H912        H  0.44943387  0.18190272  0.85008222     0.33000
H913        H  0.44944422  0.12267037  0.88486813     0.31900
H914        H  0.31670860  0.17502958  0.78770509     0.35900
H915        H  0.32598102  0.18309295  0.91360249     0.28700
H916        H  0.41861016  0.07251264  0.69534646     0.32900
H917        H  0.43054817  0.06628682  0.85855933     0.35800
H918        H  0.42090024  0.18386486  0.74202542     0.28400
H919        H  0.32762043  0.16556796  0.95157901     0.41200
H920        H  0.32214588  0.08000776  0.75021671     0.31300
H921        H  0.31805590  0.12025315  0.72017845     0.38900
H922        H  0.43829338  0.13276794  0.92625655     0.30800
H923        H  0.35547533  0.05625744  0.88416793     0.30800
H924        H  0.43152044  0.06680259  0.73824460     0.31100
Zr925      Zr  0.14586809  0.14610805  0.37739889     2.17500
O926        O  0.16674288  0.17131269  0.32937148    -0.51300
O927        O  0.13679608  0.13465510  0.30390525    -0.74500
O928        O  0.18652073  0.13415275  0.37239901    -0.81300
O929        O  0.10131219  0.19278963  0.40379762    -0.83000
O930        O  0.19051780  0.10062629  0.40742823    -0.78600
O931        O  0.13618398  0.18672405  0.37407795    -0.90300
O932        O  0.10713486  0.10988054  0.30322852    -0.76200
O933        O  0.13849176  0.10632663  0.37614303    -0.85700
O934        O  0.10528755  0.14166377  0.37662076    -0.85400
O935        O  0.16245472  0.13257380  0.44328521    -0.72200
O936        O  0.13110953  0.16400000  0.44115095    -0.84300
Zr937      Zr  0.10137531  0.10362251  0.50664135     2.26400
Zr938      Zr  0.15466898  0.09242857  0.44134954     2.06300
Zr939      Zr  0.09077692  0.15812399  0.44145375     2.10000
Zr940      Zr  0.09811503  0.10188005  0.37700104     1.78800
O941        O  0.08406091  0.18918683  0.49152974    -0.93100
O942        O  0.10690582  0.06505442  0.34468841    -0.40900
O943        O  0.08387763  0.11799768  0.44208675    -0.77500
O944        O  0.11427455  0.08630554  0.44088359    -0.96200
O945        O  0.14138814  0.10943172  0.50653567    -0.89500
O946        O  0.10701638  0.14389771  0.50671597    -0.92400
C947        C  0.12217673  0.12205656  0.28453145     1.01400
C948        C  0.11918192  0.19960843  0.38387831     1.14300
C949        C  0.19872330  0.11717366  0.38578540     1.05100
O950        O  0.15942987  0.06179149  0.38942726    -0.94500
O951        O  0.14645952  0.05756485  0.47824242    -0.90300
O952        O  0.11321945  0.06324406  0.51376403    -0.83400
C953        C  0.12992319  0.05051176  0.50129613     1.11700
O954        O  0.17555908  0.17959190  0.49841450    -0.96500
Zr955      Zr  0.14714333  0.14961888  0.50617260     1.88900
O956        O  0.11310907  0.11318349  0.58006801    -0.73100
O957        O  0.18591578  0.08046840  0.48756174    -0.52400
O958        O  0.18363684  0.13690185  0.53499266    -0.97100
O959        O  0.13713140  0.18639412  0.53730987    -0.54300
O960        O  0.13954037  0.14128922  0.58013345    -0.73700
C961        C  0.12667033  0.12703671  0.59924578     0.98700
O962        O  0.07717303  0.08213070  0.55551774    -0.62500
O963        O  0.05791389  0.16860940  0.39782994    -0.57300
O964        O  0.06082608  0.11435524  0.51109870    -0.94000
O965        O  0.05496884  0.14736888  0.47488213    -0.92400
O966        O  0.06242900  0.11640616  0.34777872    -0.92700
O967        O  0.06770963  0.07385880  0.38242065    -0.91500
C968        C  0.04784866  0.13071947  0.49796166     1.17500
H969        H  0.09865035  0.14894253  0.35181837     0.33500
H970        H  0.11039722  0.07039072  0.43909843     0.44300
H971        H  0.09985709  0.15078210  0.53136447     0.37800
H972        H  0.17843545  0.13595013  0.44627610     0.34300
H973        H  0.12088095  0.06767347  0.32769328     0.26100
H974        H  0.19537064  0.07024933  0.46963843     0.32100
H975        H  0.18027296  0.12238428  0.54979310     0.38000
H976        H  0.05290992  0.11982410  0.37312960     0.32400
H977        H  0.05325841  0.18381420  0.40845609     0.31300
H978        H  0.07220808  0.19867584  0.47764881     0.33000
H979        H  0.14535460  0.18694092  0.56499174     0.31900
H980        H  0.06174238  0.07571713  0.41184855     0.35900
H981        H  0.07234510  0.06842834  0.53959060     0.28700
H982        H  0.17587531  0.16124898  0.31057696     0.32900
H983        H  0.18312197  0.18089198  0.52666915     0.35800
H984        H  0.06405599  0.17148828  0.36886091     0.28400
H985        H  0.08747159  0.07624994  0.57812017     0.41200
H986        H  0.16465340  0.06930662  0.36283658     0.31300
H987        H  0.11197792  0.05520581  0.36859387     0.38900
H988        H  0.12089343  0.18510000  0.54531965     0.30800
H989        H  0.19533894  0.09427148  0.49163108     0.30800
H990        H  0.17803452  0.17924455  0.34751181     0.31100
Zr991      Zr  0.10058888  0.10210623  0.00043833     2.17500
O992        O  0.07188205  0.07907814  0.03673700    -0.51300
O993        O  0.10745636  0.10990940  0.07667375    -0.74500
O994        O  0.11089284  0.06139284  0.00661267    -0.81300
O995        O  0.05731264  0.14782984  0.96683315    -0.83000
O996        O  0.14565307  0.05560670  0.97630182    -0.78600
O997        O  0.06037642  0.11292867  0.99817157    -0.90300
O998        O  0.13560280  0.13614064  0.08362839    -0.76200
O999        O  0.14040250  0.10790208  0.00998499    -0.85700
O1000       O  0.10608121  0.14240708  0.00501864    -0.85400
O1001       O  0.11764922  0.08596583  0.93695736    -0.72200
O1002       O  0.08693183  0.11821667  0.93396344    -0.84300
Zr1003     Zr  0.15146100  0.14704897  0.88370814     2.26400
Zr1004     Zr  0.15771760  0.09200065  0.94728509     2.06300
Zr1005     Zr  0.09396175  0.15827039  0.93805124     2.10000
Zr1006     Zr  0.14585374  0.14816525  0.01272329     1.78800
O1007       O  0.06506148  0.16910996  0.88592333    -0.93100
O1008       O  0.18140106  0.13961662  0.04999301    -0.40900
O1009       O  0.13399325  0.16410767  0.94586017    -0.77500
O1010       O  0.16435106  0.13233210  0.95167987    -0.96200
O1011       O  0.14510252  0.10703343  0.87970392    -0.89500
O1012       O  0.11125272  0.14250481  0.87532044    -0.92400
C1013       C  0.12104380  0.12228092  0.09910190     1.01400
C1014       C  0.04884429  0.13022624  0.98512425     1.14300
C1015       C  0.12765753  0.04851161  0.99530696     1.05100
O1016       O  0.18476253  0.08248385  0.00378672    -0.94500
O1017       O  0.19516747  0.10112098  0.92046343    -0.90300
O1018       O  0.19176398  0.13432962  0.88348005    -0.83400
C1019       C  0.20359926  0.11765166  0.89892251     1.11700
O1020       O  0.07508865  0.07386751  0.87561123    -0.96500
Zr1021     Zr  0.10494303  0.10258844  0.87185180     1.88900
O1022       O  0.14480542  0.13885480  0.80731257    -0.73100
O1023       O  0.17158293  0.06224412  0.89966163    -0.52400
O1024       O  0.11904656  0.06766163  0.83945572    -0.97100
O1025       O  0.07094092  0.11186351  0.83058739    -0.54300
O1026       O  0.11705921  0.11222341  0.80083210    -0.73700
C1027       C  0.13167008  0.12589161  0.78500491     0.98700
O1028       O  0.17738205  0.17421755  0.85038793    -0.62500
O1029       O  0.08334889  0.19031283  0.98362898    -0.57300
O1030       O  0.14118495  0.18730067  0.87611652    -0.94000
O1031       O  0.10589569  0.19321796  0.90388786    -0.92400
O1032       O  0.12952648  0.18248723  0.04414759    -0.92700
O1033       O  0.17288216  0.17954377  0.01376153    -0.91500
C1034       C  0.12391624  0.20005549  0.88469582     1.17500
H1035       H  0.09765204  0.14873997  0.02874922     0.33500
H1036       H  0.18011612  0.13591218  0.95685567     0.44300
H1037       H  0.10578489  0.15022351  0.84999016     0.37800
H1038       H  0.11383621  0.07020775  0.93239112     0.34300
H1039       H  0.17864327  0.12486149  0.06435162     0.26100
H1040       H  0.17825608  0.05051932  0.91873424     0.32100
H1041       H  0.11031426  0.06613701  0.81246857     0.38000
H1042       H  0.13432202  0.18216495  0.07453720     0.32400
H1043       H  0.07899484  0.18359625  0.01147785     0.31300
H1044       H  0.05864261  0.18354683  0.89709121     0.33000
H1045       H  0.07202832  0.10245576  0.80434771     0.31900
H1046       H  0.17853305  0.18042276  0.98397991     0.35900
H1047       H  0.18948338  0.17722231  0.87174514     0.28700
H1048       H  0.07984199  0.07156603  0.06090802     0.32900
H1049       H  0.07272463  0.07127612  0.90660103     0.35800
H1050       H  0.09780096  0.19842133  0.98942441     0.28400
H1051       H  0.18503071  0.16580803  0.82696639     0.41200
H1052       H  0.17543632  0.08063535  0.02992732     0.31300
H1053       H  0.19262534  0.13596817  0.02739894     0.38900
H1054       H  0.07329654  0.12767720  0.82054543     0.30800
H1055       H  0.15768745  0.05510704  0.88780363     0.30800
H1056       H  0.06797521  0.06659551  0.01670045     0.31100
Zr1057     Zr  0.85163543  0.35185126  0.36995084     2.17500
O1058       O  0.82783782  0.32335318  0.33475873    -0.51300
O1059       O  0.85938668  0.35938193  0.29391823    -0.74500
O1060       O  0.81111351  0.36300457  0.36497866    -0.81300
O1061       O  0.89872520  0.30766645  0.39498988    -0.83000
O1062       O  0.80578159  0.39673493  0.39966299    -0.78600
O1063       O  0.86262791  0.31149184  0.36947104    -0.90300
O1064       O  0.88367169  0.38928326  0.28800940    -0.76200
O1065       O  0.85665231  0.39206785  0.36466811    -0.85700
O1066       O  0.89167129  0.35803579  0.36345705    -0.85400
O1067       O  0.83660305  0.36721200  0.43582396    -0.72200
O1068       O  0.86872845  0.33621031  0.43373413    -0.84300
Zr1069     Zr  0.89801840  0.40011956  0.48850558     2.26400
Zr1070     Zr  0.84203800  0.40761358  0.43024090     2.06300
Zr1071     Zr  0.90857800  0.34379909  0.42793533     2.10000
Zr1072     Zr  0.89673059  0.39810394  0.35928787     1.78800
O1073       O  0.91962355  0.31382266  0.47774581    -0.93100
O1074       O  0.88647536  0.43486777  0.32834135    -0.40900
O1075       O  0.91389900  0.38415598  0.42374188    -0.77500
O1076       O  0.88201714  0.41485017  0.42286055    -0.96200
O1077       O  0.85827791  0.39289114  0.49505187    -0.89500
O1078       O  0.89401667  0.35967388  0.49298856    -0.92400
C1079       C  0.87080800  0.37393960  0.27188904     1.01400
C1080       C  0.88044332  0.29953312  0.37843217     1.14300
C1081       C  0.79850251  0.37951623  0.37846940     1.05100
O1082       O  0.82916398  0.43708650  0.38091155    -0.94500
O1083       O  0.85201187  0.44441071  0.46025422    -0.90300
O1084       O  0.88678054  0.44078959  0.49165935    -0.83400
C1085       C  0.86943180  0.45273022  0.47957472     1.11700
O1086       O  0.82240938  0.32597803  0.49240206    -0.96500
Zr1087     Zr  0.85431970  0.35239523  0.49849448     1.88900
O1088       O  0.88938839  0.39234934  0.56433860    -0.73100
O1089       O  0.81368886  0.41688022  0.48434170    -0.52400
O1090       O  0.82124842  0.36379663  0.54051649    -0.97100
O1091       O  0.86647175  0.31574056  0.52747961    -0.54300
O1092       O  0.86756981  0.36056848  0.56949351    -0.73700
C1093       C  0.87916879  0.37672539  0.58593827     0.98700
O1094       O  0.92551540  0.42422049  0.52581799    -0.62500
O1095       O  0.94038691  0.33483230  0.38070889    -0.57300
O1096       O  0.93823811  0.38967814  0.49283253    -0.94000
O1097       O  0.94382031  0.35516023  0.46138099    -0.92400
O1098       O  0.93057941  0.38406073  0.32268611    -0.92700
O1099       O  0.92731638  0.42615003  0.36210878    -0.91500
C1100       C  0.95083086  0.37269243  0.48194667     1.17500
H1101       H  0.89770523  0.35035823  0.33857634     0.33500
H1102       H  0.88530386  0.43072221  0.41814695     0.44300
H1103       H  0.90237691  0.35369863  0.51717811     0.37800
H1104       H  0.82084488  0.36329443  0.44013086     0.34300
H1105       H  0.89149780  0.43406630  0.29813755     0.26100
H1106       H  0.80206515  0.42605537  0.46908084     0.32100
H1107       H  0.82295004  0.35585488  0.56829956     0.38000
H1108       H  0.94115837  0.37968393  0.34600776     0.32400
H1109       H  0.94503814  0.31920643  0.38892727     0.31300
H1110       H  0.90641627  0.30338029  0.47874772     0.33000
H1111       H  0.85769912  0.31391675  0.55429588     0.31900
H1112       H  0.93200969  0.42864133  0.33204448     0.35900
H1113       H  0.92978038  0.43633451  0.50530391     0.28700
H1114       H  0.82062840  0.33122186  0.31017262     0.32900
H1115       H  0.82095846  0.31851262  0.52066308     0.35800
H1116       H  0.93367498  0.33309641  0.35182308     0.28400
H1117       H  0.91688058  0.43211080  0.54866529     0.41200
H1118       H  0.82062104  0.44806405  0.39886574     0.31300
H1119       H  0.86962902  0.43470558  0.32679510     0.38900
H1120       H  0.88230106  0.31823190  0.53734598     0.30800
H1121       H  0.80604141  0.40225547  0.49052816     0.30800
H1122       H  0.81520794  0.32010415  0.35482487     0.31100
Zr1123     Zr  0.89599417  0.39681848  0.99162891     2.17500
O1124       O  0.92218432  0.41696240  0.03899232    -0.51300
O1125       O  0.88484216  0.38808964  0.06579229    -0.74500
O1126       O  0.88504383  0.43791452  0.99640462    -0.81300
O1127       O  0.94208914  0.35181147  0.96124011    -0.83000
O1128       O  0.85146890  0.44234305  0.96158295    -0.78600
O1129       O  0.93663885  0.38644506  0.99241658    -0.90300
O1130       O  0.86147125  0.35735616  0.06754921    -0.76200
O1131       O  0.85606136  0.39025293  0.99375850    -0.85700
O1132       O  0.89097939  0.35628900  0.99333088    -0.85400
O1133       O  0.88191609  0.41317228  0.92579863    -0.72200
O1134       O  0.91276017  0.38126222  0.92750896    -0.84300
Zr1135     Zr  0.85183573  0.35179590  0.86501234     2.26400
Zr1136     Zr  0.84163968  0.40620286  0.92854662     2.06300
Zr1137     Zr  0.90647063  0.34097546  0.92836336     2.10000
Zr1138     Zr  0.85107593  0.34990020  0.99436644     1.78800
O1139       O  0.93716559  0.33114322  0.87933590    -0.93100
O1140       O  0.81608488  0.36233061  0.02929775    -0.40900
O1141       O  0.86632658  0.33435031  0.92950084    -0.77500
O1142       O  0.83555034  0.36589401  0.93076618    -0.96200
O1143       O  0.85779367  0.39188565  0.86337661    -0.89500
O1144       O  0.89212703  0.35707780  0.86326338    -0.92400
C1145       C  0.87312946  0.37294966  0.08581789     1.01400
C1146       C  0.94930408  0.36950335  0.98111616     1.14300
C1147       C  0.86816783  0.45042132  0.98338082     1.05100
O1148       O  0.81094750  0.41249012  0.97960184    -0.94500
O1149       O  0.80629098  0.39593584  0.89343341    -0.90300
O1150       O  0.81148603  0.36238275  0.85848606    -0.83400
C1151       C  0.79889483  0.37900873  0.87139740     1.11700
O1152       O  0.92653060  0.42716757  0.86979437    -0.96500
Zr1153     Zr  0.89807047  0.39718516  0.86276133     1.88900
O1154       O  0.86243016  0.36074875  0.79072821    -0.73100
O1155       O  0.82952710  0.43688635  0.88122655    -0.52400
O1156       O  0.88488925  0.43262575  0.83034229    -0.97100
O1157       O  0.93519561  0.38680687  0.83360485    -0.54300
O1158       O  0.88981108  0.38801114  0.78950753    -0.73700
C1159       C  0.87612672  0.37425737  0.77110039     0.98700
O1160       O  0.82533516  0.32983855  0.82106178    -0.62500
O1161       O  0.91698352  0.31059478  0.97775972    -0.57300
O1162       O  0.86156420  0.31134547  0.86092170    -0.94000
O1163       O  0.89536051  0.30534668  0.89454345    -0.92400
O1164       O  0.86157980  0.31258442  0.02221784    -0.92700
O1165       O  0.81985309  0.32274994  0.98940851    -0.91500
C1166       C  0.87810466  0.29844040  0.87281164     1.17500
H1167       H  0.89845149  0.34962104  0.01791077     0.33500
H1168       H  0.81967108  0.36213492  0.93370338     0.44300
H1169       H  0.89890176  0.34966095  0.83876852     0.37800
H1170       H  0.88556694  0.42906230  0.92238915     0.34300
H1171       H  0.81486369  0.35268829  0.05519030     0.26100
H1172       H  0.82022324  0.44710971  0.89940912     0.32100
H1173       H  0.89104053  0.43250195  0.80085659     0.38000
H1174       H  0.86112165  0.30232071  0.99706503     0.32400
H1175       H  0.90257393  0.30252105  0.98385298     0.31300
H1176       H  0.94482446  0.31791434  0.89281139     0.33000
H1177       H  0.93224545  0.37375117  0.81432423     0.31900
H1178       H  0.81808002  0.31990421  0.95834863     0.35900
H1179       H  0.83462638  0.32306685  0.79786807     0.28700
H1180       H  0.91262700  0.42706603  0.05694483     0.32900
H1181       H  0.93066552  0.43147920  0.84017114     0.35800
H1182       H  0.92593022  0.29969465  0.96034627     0.28400
H1183       H  0.82048027  0.31674880  0.83874656     0.41200
H1184       H  0.81843225  0.41892882  0.00531032     0.31300
H1185       H  0.81953154  0.37770756  0.04057124     0.38900
H1186       H  0.94361361  0.38013146  0.85808240     0.30800
H1187       H  0.84356163  0.44563293  0.87517814     0.30800
H1188       H  0.93089278  0.42733744  0.02027278     0.31100
Zr1189     Zr  0.89584372  0.60387262  0.99382090     2.17500
O1190       O  0.92151964  0.58247851  0.94739096    -0.51300
O1191       O  0.88378095  0.61294180  0.92062525    -0.74500
O1192       O  0.88418029  0.56321203  0.98843830    -0.81300
O1193       O  0.94254709  0.64904859  0.02021112    -0.83000
O1194       O  0.85135007  0.55822006  0.02557050    -0.78600
O1195       O  0.93625598  0.61471055  0.98855564    -0.90300
O1196       O  0.85716201  0.64091987  0.91987302    -0.76200
O1197       O  0.85580732  0.61036058  0.99427386    -0.85700
O1198       O  0.89082189  0.64431242  0.99213711    -0.85400
O1199       O  0.88318508  0.58719540  0.06023800    -0.72200
O1200       O  0.91404965  0.61931104  0.05663737    -0.84300
Zr1201     Zr  0.85374778  0.64856979  0.12245055     2.26400
Zr1202     Zr  0.84287212  0.59408151  0.06042395     2.06300
Zr1203     Zr  0.90758506  0.65957227  0.05611919     2.10000
Zr1204     Zr  0.85097267  0.65078291  0.99363100     1.78800
O1205       O  0.93967842  0.66822765  0.10283636    -0.93100
O1206       O  0.81328681  0.64203406  0.96570962    -0.40900
O1207       O  0.86739026  0.66596286  0.05761134    -0.77500
O1208       O  0.83657102  0.63442628  0.05753569    -0.96200
O1209       O  0.86024811  0.60849940  0.12430430    -0.89500
O1210       O  0.89417547  0.64339911  0.12175447    -0.92400
C1211       C  0.87019344  0.62664731  0.90102162     1.01400
C1212       C  0.94927644  0.63147666  0.99930577     1.14300
C1213       C  0.86768584  0.55060859  0.00235062     1.05100
O1214       O  0.81054892  0.58191094  0.01735059    -0.94500
O1215       O  0.80710270  0.60436322  0.09344925    -0.90300
O1216       O  0.81313597  0.63762967  0.12932943    -0.83400
C1217       C  0.80023284  0.62129643  0.11588461     1.11700
O1218       O  0.92802356  0.57272921  0.10891615    -0.96500
Zr1219     Zr  0.90063038  0.60328291  0.12211622     1.88900
O1220       O  0.86599033  0.63909477  0.19572772    -0.73100
O1221       O  0.83512713  0.56576268  0.11539735    -0.52400
O1222       O  0.88911691  0.56846263  0.15860882    -0.97100
O1223       O  0.93875768  0.61262327  0.14761599    -0.54300
O1224       O  0.89479875  0.61329463  0.19591637    -0.73700
C1225       C  0.88069834  0.62639591  0.21505981     0.98700
O1226       O  0.82858796  0.67118943  0.16796866    -0.62500
O1227       O  0.91521586  0.69107470  0.00743077    -0.57300
O1228       O  0.86355908  0.68925720  0.12402945    -0.94000
O1229       O  0.89760398  0.69515642  0.09136979    -0.92400
O1230       O  0.86386572  0.68622554  0.96137913    -0.92700
O1231       O  0.82396302  0.68204116  0.00126612    -0.91500
C1232       C  0.88015209  0.70216675  0.11240471     1.17500
H1233       H  0.89769907  0.65080433  0.96687392     0.33500
H1234       H  0.82071083  0.63832604  0.05489876     0.44300
H1235       H  0.90131149  0.65085720  0.14585180     0.37800
H1236       H  0.88690289  0.57126180  0.06296462     0.34300
H1237       H  0.81478923  0.62656797  0.95347239     0.26100
H1238       H  0.82263429  0.55641700  0.10334998     0.32100
H1239       H  0.89732820  0.56865192  0.18631916     0.38000
H1240       H  0.86961795  0.69539862  0.98569293     0.32400
H1241       H  0.92817750  0.69931519  0.02052497     0.31300
H1242       H  0.94716517  0.68151276  0.08937409     0.33000
H1243       H  0.94066284  0.60370986  0.17428428     0.31900
H1244       H  0.81825938  0.68056687  0.03092184     0.35900
H1245       H  0.83864091  0.67946876  0.18813483     0.28700
H1246       H  0.91163218  0.57470703  0.92625476     0.32900
H1247       H  0.93257726  0.56688602  0.13740154     0.35800
H1248       H  0.92163388  0.68398967  0.98135410     0.28400
H1249       H  0.82201555  0.68310589  0.14918543     0.41200
H1250       H  0.81099579  0.59166829  0.99157605     0.31300
H1251       H  0.81136165  0.65214347  0.94060161     0.38900
H1252       H  0.93771850  0.62864677  0.15727513     0.30800
H1253       H  0.84857580  0.55555857  0.11507399     0.30800
H1254       H  0.92782141  0.57010535  0.96532399     0.31100
Zr1255     Zr  0.85294413  0.65186718  0.61566058     2.17500
O1256       O  0.82581056  0.68291928  0.62576313    -0.51300
O1257       O  0.85859537  0.64426513  0.69238479    -0.74500
O1258       O  0.81281037  0.63950574  0.62463918    -0.81300
O1259       O  0.90249543  0.69298733  0.59875194    -0.83000
O1260       O  0.80612651  0.60879789  0.58177681    -0.78600
O1261       O  0.86862487  0.68969106  0.63261579    -0.90300
O1262       O  0.88496603  0.61605893  0.69800560    -0.76200
O1263       O  0.85627770  0.61140913  0.61977066    -0.85700
O1264       O  0.89265699  0.64384144  0.62391710    -0.85400
O1265       O  0.83840623  0.63757301  0.54873925    -0.72200
O1266       O  0.87188571  0.66708856  0.55335249    -0.84300
Zr1267     Zr  0.89963216  0.60293398  0.49899847     2.26400
Zr1268     Zr  0.84223573  0.59692008  0.55287915     2.06300
Zr1269     Zr  0.91133624  0.65786749  0.56140082     2.10000
Zr1270     Zr  0.89593284  0.60360763  0.62735821     1.78800
O1271       O  0.92441736  0.69115060  0.52227605    -0.93100
O1272       O  0.88003802  0.56906460  0.65845580    -0.40900
O1273       O  0.91490300  0.61752433  0.56490377    -0.77500
O1274       O  0.88171241  0.58814877  0.56216598    -0.96200
O1275       O  0.86016723  0.61155999  0.49020625    -0.89500
O1276       O  0.89676467  0.64353550  0.49548350    -0.92400
C1277       C  0.87139889  0.63076381  0.71443989     1.01400
C1278       C  0.88671397  0.70101617  0.62287023     1.14300
C1279       C  0.79957438  0.62450372  0.60737605     1.05100
O1280       O  0.82715741  0.56808248  0.60108503    -0.94500
O1281       O  0.85253388  0.56045837  0.52100089    -0.90300
O1282       O  0.88428143  0.56496938  0.48109854    -0.83400
C1283       C  0.86797948  0.55253665  0.49593268     1.11700
O1284       O  0.83198113  0.68481582  0.49408288    -0.96500
Zr1285     Zr  0.85746309  0.65208129  0.48746980     1.88900
O1286       O  0.89349585  0.60947696  0.42267190    -0.73100
O1287       O  0.81287647  0.58943415  0.49943295    -0.52400
O1288       O  0.82097106  0.64408513  0.45355902    -0.97100
O1289       O  0.87063805  0.68499310  0.44671554    -0.54300
O1290       O  0.86826472  0.63885847  0.41733694    -0.73700
C1291       C  0.88118696  0.62354616  0.40103387     0.98700
O1292       O  0.92809250  0.57273285  0.50234074    -0.62500
O1293       O  0.94243866  0.65951892  0.61307878    -0.57300
O1294       O  0.93814536  0.61580615  0.48037313    -0.94000
O1295       O  0.94531919  0.64695200  0.52139172    -0.92400
O1296       O  0.93248265  0.61100158  0.66154801    -0.92700
O1297       O  0.92371171  0.57271221  0.62989393    -0.91500
C1298       C  0.95145448  0.63167040  0.49413630     1.17500
H1299       H  0.89879736  0.65100426  0.64926226     0.33500
H1300       H  0.88437577  0.57198187  0.56458006     0.44300
H1301       H  0.90539515  0.64942541  0.47164446     0.37800
H1302       H  0.82274684  0.64215951  0.54495550     0.34300
H1303       H  0.88873215  0.56671043  0.68528598     0.26100
H1304       H  0.82055884  0.58081292  0.47633511     0.32100
H1305       H  0.81721812  0.62836590  0.46237248     0.38000
H1306       H  0.94296308  0.61476400  0.63778784     0.32400
H1307       H  0.95437811  0.66868326  0.59887902     0.31300
H1308       H  0.91370987  0.69258955  0.49792994     0.33000
H1309       H  0.88589635  0.68076207  0.43581913     0.31900
H1310       H  0.92148609  0.56423384  0.60282539     0.35900
H1311       H  0.93970160  0.57853522  0.52260976     0.28700
H1312       H  0.81699745  0.67914359  0.65180515     0.32900
H1313       H  0.82649858  0.68812196  0.46473548     0.35800
H1314       H  0.93681551  0.66932934  0.63658943     0.28400
H1315       H  0.92093691  0.56013764  0.51848011     0.41200
H1316       H  0.83944399  0.55658819  0.60370738     0.31300
H1317       H  0.86460157  0.57349023  0.66816377     0.38900
H1318       H  0.87364227  0.69695491  0.46833563     0.30800
H1319       H  0.80256747  0.57827272  0.51307442     0.30800
H1320       H  0.81481564  0.68165085  0.60179575     0.31100
Zr1321     Zr  0.60071613  0.60481639  0.24727077     2.17500
O1322       O  0.57201436  0.58419306  0.28805981    -0.51300
O1323       O  0.60968742  0.61163279  0.32282734    -0.74500
O1324       O  0.61053367  0.56366664  0.25114723    -0.81300
O1325       O  0.55591636  0.65124009  0.21892097    -0.83000
O1326       O  0.64417440  0.55879307  0.21675626    -0.78600
O1327       O  0.56059302  0.61600162  0.24780086    -0.90300
O1328       O  0.63694628  0.63884370  0.32862652    -0.76200
O1329       O  0.64081253  0.61010648  0.25225735    -0.85700
O1330       O  0.60664622  0.64499957  0.25319779    -0.85400
O1331       O  0.61523201  0.58946517  0.18114776    -0.72200
O1332       O  0.58521286  0.62206275  0.18361470    -0.84300
Zr1333     Zr  0.64905614  0.65073581  0.12823178     2.26400
Zr1334     Zr  0.65566286  0.59485332  0.18669148     2.06300
Zr1335     Zr  0.59254471  0.66195456  0.18844617     2.10000
Zr1336     Zr  0.64667012  0.65026186  0.25710483     1.78800
O1337       O  0.56258167  0.67321201  0.13869809    -0.93100
O1338       O  0.68229202  0.64137967  0.29374140    -0.40900
O1339       O  0.63290279  0.66686044  0.19238799    -0.77500
O1340       O  0.66350838  0.63475836  0.19413906    -0.96200
O1341       O  0.64123400  0.61112854  0.12178293    -0.89500
O1342       O  0.60851319  0.64718319  0.12353627    -0.92400
C1343       C  0.62303937  0.62450597  0.34463965     1.01400
C1344       C  0.54821423  0.63320877  0.23719134     1.14300
C1345       C  0.62715542  0.55102913  0.23783637     1.05100
O1346       O  0.68381856  0.58066521  0.23705904    -0.94500
O1347       O  0.69306433  0.60371524  0.15814830    -0.90300
O1348       O  0.68945511  0.63806585  0.12544523    -0.83400
C1349       C  0.70151347  0.62092546  0.13845186     1.11700
O1350       O  0.56985063  0.57981766  0.12174568    -0.96500
Zr1351     Zr  0.60070370  0.60755451  0.11852615     1.88900
O1352       O  0.64125605  0.64186417  0.05214348    -0.73100
O1353       O  0.66464923  0.56634223  0.13264644    -0.52400
O1354       O  0.61172101  0.57234045  0.08255755    -0.97100
O1355       O  0.56480774  0.62091738  0.08805733    -0.54300
O1356       O  0.61030730  0.61880638  0.04691005    -0.73700
C1357       C  0.62619927  0.63075667  0.03039444     0.98700
O1358       O  0.67324985  0.67918970  0.09415434    -0.62500
O1359       O  0.58480483  0.69354434  0.23704318    -0.57300
O1360       O  0.63956268  0.69137771  0.12565586    -0.94000
O1361       O  0.60462540  0.69723312  0.15538115    -0.92400
O1362       O  0.63263824  0.68581151  0.28757779    -0.92700
O1363       O  0.67545189  0.68002216  0.25414350    -0.91500
C1364       C  0.62263970  0.70418818  0.13620969     1.17500
H1365       H  0.59900137  0.65106231  0.27808129     0.33500
H1366       H  0.67943626  0.63775628  0.19900175     0.44300
H1367       H  0.60269853  0.65547568  0.09913829     0.37800
H1368       H  0.61101933  0.57378359  0.17679166     0.34300
H1369       H  0.68149179  0.64977785  0.32120296     0.26100
H1370       H  0.67552743  0.55590121  0.14695143     0.32100
H1371       H  0.60953578  0.56008546  0.10391561     0.38000
H1372       H  0.63920682  0.68632810  0.31677274     0.32400
H1373       H  0.57015756  0.69999770  0.22692764     0.31300
H1374       H  0.55333099  0.68450276  0.15461148     0.33000
H1375       H  0.56823857  0.63608352  0.07594587     0.31900
H1376       H  0.68132509  0.67931052  0.22449081     0.35900
H1377       H  0.68716173  0.68036457  0.11199411     0.28700
H1378       H  0.58052627  0.57502126  0.30935229     0.32900
H1379       H  0.56635867  0.57588650  0.09161404     0.35800
H1380       H  0.58111170  0.68648017  0.26492003     0.28400
H1381       H  0.67831748  0.67216041  0.06700678     0.41200
H1382       H  0.67968176  0.58754062  0.26491130     0.31300
H1383       H  0.68091377  0.62516163  0.30196785     0.38900
H1384       H  0.55501689  0.62421777  0.11309823     0.30800
H1385       H  0.65053542  0.55728116  0.12958476     0.30800
H1386       H  0.56553525  0.57293965  0.26795360     0.31100
Zr1387     Zr  0.60335940  0.60368088  0.74932492     2.17500
O1388       O  0.57786267  0.58238346  0.79616176    -0.51300
O1389       O  0.61269901  0.61318189  0.82410790    -0.74500
O1390       O  0.61411074  0.56275904  0.75274824    -0.81300
O1391       O  0.55764989  0.64916403  0.72199561    -0.83000
O1392       O  0.64643432  0.55705243  0.71430927    -0.78600
O1393       O  0.56266696  0.61372455  0.74982667    -0.90300
O1394       O  0.64091612  0.63950673  0.82644625    -0.76200
O1395       O  0.64359662  0.60869231  0.74996678    -0.85700
O1396       O  0.60958238  0.64389574  0.75343107    -0.85400
O1397       O  0.61643374  0.58797137  0.68207541    -0.72200
O1398       O  0.58617665  0.62035087  0.68673725    -0.84300
Zr1399     Zr  0.64809406  0.64866826  0.62414772     2.26400
Zr1400     Zr  0.65707391  0.59331768  0.68332796     2.06300
Zr1401     Zr  0.59365314  0.66023626  0.68963669     2.10000
Zr1402     Zr  0.64974904  0.64881297  0.75334521     1.78800
O1403       O  0.56185810  0.67146464  0.64405826    -0.93100
O1404       O  0.68536494  0.63592805  0.78556387    -0.40900
O1405       O  0.63410692  0.66529399  0.68964633    -0.77500
O1406       O  0.66457133  0.63336416  0.68884471    -0.96200
O1407       O  0.64034966  0.60899098  0.61978011    -0.89500
O1408       O  0.60757531  0.64506414  0.62345055    -0.92400
C1409       C  0.62664075  0.62621349  0.84439835     1.01400
C1410       C  0.55010438  0.63100872  0.74002994     1.14300
C1411       C  0.63002167  0.54976103  0.73770919     1.05100
O1412       O  0.68620261  0.58085894  0.73351914    -0.94500
O1413       O  0.69364644  0.60356298  0.65148770    -0.90300
O1414       O  0.68860848  0.63766575  0.61834762    -0.83400
C1415       C  0.70124617  0.62094737  0.63093753     1.11700
O1416       O  0.56923718  0.57771658  0.62908153    -0.96500
Zr1417     Zr  0.59977822  0.60542140  0.62059411     1.88900
O1418       O  0.63905421  0.63820218  0.54981401    -0.73100
O1419       O  0.66620888  0.56448769  0.62984341    -0.52400
O1420       O  0.60758207  0.56978966  0.58338673    -0.97100
O1421       O  0.56345100  0.62001643  0.59406336    -0.54300
O1422       O  0.60806545  0.61510669  0.54758671    -0.73700
C1423       C  0.62375641  0.62672947  0.52967186     0.98700
O1424       O  0.67041959  0.67558865  0.58201772    -0.62500
O1425       O  0.58761076  0.69159733  0.73948575    -0.57300
O1426       O  0.63802567  0.68899843  0.62033404    -0.94000
O1427       O  0.60405260  0.69513304  0.65338300    -0.92400
O1428       O  0.63965907  0.68615946  0.78170494    -0.92700
O1429       O  0.68087544  0.67612509  0.75002709    -0.91500
C1430       C  0.62141784  0.70189420  0.63201832     1.17500
H1431       H  0.60260572  0.65042005  0.77860323     0.33500
H1432       H  0.68049851  0.63676033  0.69246738     0.44300
H1433       H  0.60107068  0.65314249  0.59941248     0.37800
H1434       H  0.61216080  0.57226107  0.67822039     0.34300
H1435       H  0.68577175  0.64303901  0.81429999     0.26100
H1436       H  0.67049265  0.57312401  0.60385821     0.32100
H1437       H  0.62387206  0.56663382  0.58913794     0.38000
H1438       H  0.63497071  0.68340105  0.81167245     0.32400
H1439       H  0.57618391  0.70148216  0.72529690     0.31300
H1440       H  0.55380131  0.68348258  0.66037701     0.33000
H1441       H  0.56728895  0.63329632  0.57598442     0.31900
H1442       H  0.68416995  0.67772081  0.71911021     0.35900
H1443       H  0.68384824  0.67955634  0.59973008     0.28700
H1444       H  0.58764412  0.57224905  0.81366748     0.32900
H1445       H  0.56334895  0.57482726  0.59986225     0.35800
H1446       H  0.57937851  0.68482107  0.76396232     0.28400
H1447       H  0.67660091  0.66669961  0.55772842     0.41200
H1448       H  0.69696329  0.57183470  0.71595378     0.31300
H1449       H  0.68304928  0.61950604  0.79121771     0.38900
H1450       H  0.55589492  0.62664217  0.61950773     0.30800
H1451       H  0.68064146  0.55754349  0.63991402     0.30800
H1452       H  0.56918568  0.57206356  0.77721453     0.31100
Zr1453     Zr  0.60123684  0.39778163  0.24585447     2.17500
O1454       O  0.57485875  0.41797819  0.19870096    -0.51300
O1455       O  0.61195152  0.38860339  0.17175168    -0.74500
O1456       O  0.61119958  0.43859809  0.23925351    -0.81300
O1457       O  0.55616399  0.35237108  0.27568445    -0.83000
O1458       O  0.64549860  0.44386543  0.27119308    -0.78600
O1459       O  0.56093140  0.38713530  0.24485733    -0.90300
O1460       O  0.63408727  0.35697757  0.16914634    -0.76200
O1461       O  0.64121487  0.39181553  0.24247562    -0.85700
O1462       O  0.60651135  0.35738376  0.24481739    -0.85400
O1463       O  0.61576091  0.41501848  0.31068387    -0.72200
O1464       O  0.58502375  0.38307734  0.31116256    -0.84300
Zr1465     Zr  0.64756915  0.35451907  0.37023070     2.26400
Zr1466     Zr  0.65605423  0.40869351  0.30665655     2.06300
Zr1467     Zr  0.59170519  0.34290180  0.31089154     2.10000
Zr1468     Zr  0.64651497  0.35150015  0.24176040     1.78800
O1469       O  0.56132161  0.33660132  0.36253242    -0.93100
O1470       O  0.67918361  0.36550176  0.20154904    -0.40900
O1471       O  0.63190494  0.33653167  0.30742866    -0.77500
O1472       O  0.66300274  0.36835014  0.30366862    -0.96200
O1473       O  0.64098059  0.39456282  0.37271632    -0.89500
O1474       O  0.60727862  0.35952916  0.37427853    -0.92400
C1475       C  0.62281604  0.37298911  0.15122869     1.01400
C1476       C  0.54862223  0.36999075  0.25588686     1.14300
C1477       C  0.62809802  0.45132941  0.25053756     1.05100
O1478       O  0.68637837  0.42058037  0.25868921    -0.94500
O1479       O  0.69266644  0.39935904  0.33799131    -0.90300
O1480       O  0.68783229  0.36612805  0.37420601    -0.83400
C1481       C  0.70029185  0.38244566  0.35975489     1.11700
O1482       O  0.57094593  0.42810985  0.36361725    -0.96500
Zr1483     Zr  0.60058359  0.39948916  0.37499800     1.88900
O1484       O  0.63859927  0.36377995  0.44448774    -0.73100
O1485       O  0.66431174  0.43881502  0.35796612    -0.52400
O1486       O  0.61109649  0.43575211  0.40746176    -0.97100
O1487       O  0.56489387  0.38837343  0.40900387    -0.54300
O1488       O  0.61099390  0.39085165  0.44795423    -0.73700
C1489       C  0.62510334  0.37697525  0.46525056     0.98700
O1490       O  0.67144238  0.32862432  0.41206828    -0.62500
O1491       O  0.58100637  0.31057273  0.26627345    -0.57300
O1492       O  0.63767794  0.31436973  0.37764193    -0.94000
O1493       O  0.60280126  0.30828515  0.34818400    -0.92400
O1494       O  0.63837872  0.31299190  0.21718728    -0.92700
O1495       O  0.67869407  0.32538244  0.24709061    -0.91500
C1496       C  0.62062523  0.30153741  0.36848453     1.17500
H1497       H  0.59871037  0.35050472  0.22083375     0.33500
H1498       H  0.67888035  0.36473532  0.29978585     0.44300
H1499       H  0.60119460  0.35213223  0.39938222     0.37800
H1500       H  0.61192496  0.43090789  0.31366609     0.34300
H1501       H  0.68090901  0.35471732  0.17738715     0.26100
H1502       H  0.67633545  0.44802682  0.34410515     0.32100
H1503       H  0.60325872  0.43594487  0.43550386     0.38000
H1504       H  0.62205669  0.31326093  0.20919271     0.32400
H1505       H  0.59442373  0.30032359  0.26659059     0.31300
H1506       H  0.55138553  0.32500680  0.34909199     0.33000
H1507       H  0.56336731  0.39865333  0.43397564     0.31900
H1508       H  0.67958753  0.32147836  0.27787536     0.35900
H1509       H  0.68482965  0.32496838  0.39406967     0.28700
H1510       H  0.58438028  0.42718654  0.17913507     0.32900
H1511       H  0.56677776  0.43393442  0.39229998     0.35800
H1512       H  0.56930095  0.30238569  0.28305472     0.28400
H1513       H  0.67754069  0.33781146  0.43606410     0.41200
H1514       H  0.68047061  0.41747613  0.22957455     0.31300
H1515       H  0.67393262  0.37982336  0.18796830     0.38900
H1516       H  0.56789702  0.37323841  0.42178478     0.30800
H1517       H  0.65064213  0.44872796  0.35752329     0.30800
H1518       H  0.56693413  0.42920683  0.21700391     0.31100
Zr1519     Zr  0.64609904  0.35232303  0.87041285     2.17500
O1520       O  0.66790261  0.32764646  0.91823030    -0.51300
O1521       O  0.63728305  0.36213434  0.94457180    -0.74500
O1522       O  0.68710002  0.36291054  0.87296410    -0.81300
O1523       O  0.60159237  0.30620562  0.84435471    -0.83000
O1524       O  0.69135221  0.39575628  0.83594248    -0.78600
O1525       O  0.63633785  0.31192052  0.87465254    -0.90300
O1526       O  0.61022331  0.38970501  0.94783503    -0.76200
O1527       O  0.63970855  0.39235996  0.87252959    -0.85700
O1528       O  0.60569594  0.35761010  0.87416547    -0.85400
O1529       O  0.66139511  0.36571565  0.80352017    -0.72200
O1530       O  0.62994477  0.33472424  0.80754563    -0.84300
Zr1531     Zr  0.60010650  0.39667731  0.74573985     2.26400
Zr1532     Zr  0.65492019  0.40602560  0.80619711     2.06300
Zr1533     Zr  0.58984442  0.34150905  0.81011687     2.10000
Zr1534     Zr  0.59931758  0.39755670  0.87481735     1.78800
O1535       O  0.58078363  0.30968506  0.76310720    -0.93100
O1536       O  0.60746198  0.43526472  0.90367851    -0.40900
O1537       O  0.58352520  0.38184590  0.81066928    -0.77500
O1538       O  0.61477206  0.41309719  0.81080992    -0.96200
O1539       O  0.63992576  0.38961155  0.74189501    -0.89500
O1540       O  0.60477823  0.35613121  0.74432477    -0.92400
C1541       C  0.62415044  0.37571996  0.96526062     1.01400
C1542       C  0.61940159  0.29914370  0.86436004     1.14300
C1543       C  0.69949938  0.37924838  0.85795855     1.05100
O1544       O  0.66514223  0.43516497  0.85821750    -0.94500
O1545       O  0.64502971  0.44197867  0.77347464    -0.90300
O1546       O  0.61101331  0.43760461  0.74004826    -0.83400
C1547       C  0.62803439  0.44997747  0.75245369     1.11700
O1548       O  0.67490811  0.32111756  0.74966163    -0.96500
Zr1549     Zr  0.64460875  0.34917383  0.74166086     1.88900
O1550       O  0.61039579  0.38759999  0.67166625    -0.73100
O1551       O  0.68467815  0.41607240  0.75531519    -0.52400
O1552       O  0.68008390  0.35886401  0.70573033    -0.97100
O1553       O  0.63367013  0.31173754  0.71489776    -0.54300
O1554       O  0.63431746  0.35727910  0.66859568    -0.73700
C1555       C  0.62223328  0.37281899  0.65095054     0.98700
O1556       O  0.57371873  0.41828052  0.70094370    -0.62500
O1557       O  0.55815983  0.33256294  0.85769579    -0.57300
O1558       O  0.55989741  0.38598777  0.74247766    -0.94000
O1559       O  0.55465658  0.35140712  0.77379214    -0.92400
O1560       O  0.56337050  0.38448646  0.90493582    -0.92700
O1561       O  0.56906329  0.42594649  0.87121023    -0.91500
C1562       C  0.54741132  0.36894268  0.75331994     1.17500
H1563       H  0.59954561  0.35039074  0.89938284     0.33500
H1564       H  0.61119788  0.42902232  0.81410632     0.44300
H1565       H  0.59693472  0.34951781  0.72012727     0.37800
H1566       H  0.67715828  0.36174107  0.79927802     0.34300
H1567       H  0.60425629  0.43414670  0.93470068     0.26100
H1568       H  0.69422595  0.40221344  0.75274649     0.32100
H1569       H  0.67629013  0.37202643  0.68721791     0.38000
H1570       H  0.56704280  0.37949251  0.93441066     0.32400
H1571       H  0.56471350  0.33209639  0.88687540     0.31300
H1572       H  0.57030111  0.30002586  0.77998184     0.33000
H1573       H  0.61830921  0.31392287  0.70245965     0.31900
H1574       H  0.57007050  0.43220383  0.84185093     0.35900
H1575       H  0.56764479  0.43053065  0.71942894     0.28700
H1576       H  0.67693305  0.33786789  0.93689049     0.32900
H1577       H  0.67425650  0.31676251  0.78022879     0.35800
H1578       H  0.54841195  0.34634827  0.85755839     0.28400
H1579       H  0.58324228  0.42617541  0.67944697     0.41200
H1580       H  0.67176494  0.44769866  0.84111758     0.31300
H1581       H  0.62421964  0.43679002  0.90183726     0.38900
H1582       H  0.63102066  0.30246285  0.74088270     0.30800
H1583       H  0.67679769  0.41717839  0.72734290     0.30800
H1584       H  0.67921976  0.31987356  0.89996130     0.31100
Zr1585     Zr  0.14468638  0.64652504  0.12390346     2.17500
O1586       O  0.17061025  0.66912988  0.16789595    -0.51300
O1587       O  0.13512653  0.63833190  0.19926431    -0.74500
O1588       O  0.13343678  0.68667416  0.12825206    -0.81300
O1589       O  0.18975218  0.60230891  0.09213638    -0.83000
O1590       O  0.10013967  0.69260992  0.09253821    -0.78600
O1591       O  0.18553823  0.63630015  0.12555642    -0.90300
O1592       O  0.10706168  0.61191716  0.20212136    -0.76200
O1593       O  0.10427804  0.64298911  0.12365298    -0.85700
O1594       O  0.13706513  0.60681568  0.13040900    -0.85400
O1595       O  0.13187625  0.66209902  0.05598161    -0.72200
O1596       O  0.16111024  0.62879595  0.06189415    -0.84300
Zr1597     Zr  0.09954537  0.60050925  0.00087533     2.26400
Zr1598     Zr  0.09108889  0.65741879  0.05610855     2.06300
Zr1599     Zr  0.15282523  0.58920683  0.06793712     2.10000
Zr1600     Zr  0.09672294  0.60334280  0.12958968     1.78800
O1601       O  0.18135610  0.57264781  0.02069695    -0.93100
O1602       O  0.06357149  0.61999808  0.16477075    -0.40900
O1603       O  0.11233717  0.58495810  0.06791991    -0.77500
O1604       O  0.08274877  0.61772849  0.06347759    -0.96200
O1605       O  0.10750114  0.64006887  0.99403744    -0.89500
O1606       O  0.14006452  0.60362381  0.00024325    -0.92400
C1607       C  0.12140116  0.62525170  0.21992792     1.01400
C1608       C  0.19790653  0.61946075  0.11249319     1.14300
C1609       C  0.11698475  0.69946482  0.11531610     1.05100
O1610       O  0.05861688  0.66945909  0.09897502    -0.94500
O1611       O  0.05552751  0.64780765  0.01963577    -0.90300
O1612       O  0.06009192  0.61275664  0.98990385    -0.83400
C1613       C  0.04789378  0.63025695  0.99955378     1.11700
O1614       O  0.17717567  0.67268797  0.00047681    -0.96500
Zr1615     Zr  0.14796933  0.64332769  0.99493380     1.88900
O1616       O  0.11008300  0.60759244  0.92630443    -0.73100
O1617       O  0.08644079  0.68746609  0.00300667    -0.52400
O1618       O  0.13664005  0.67603122  0.95175809    -0.97100
O1619       O  0.18532924  0.63115784  0.96953075    -0.54300
O1620       O  0.14089153  0.63079748  0.92279165    -0.73700
C1621       C  0.12536015  0.61863851  0.90550585     0.98700
O1622       O  0.07231184  0.57715196  0.96127103    -0.62500
O1623       O  0.16287678  0.56197177  0.12381785    -0.57300
O1624       O  0.10859996  0.55980950  0.00061949    -0.94000
O1625       O  0.13926848  0.55265181  0.04306052    -0.92400
O1626       O  0.10440662  0.56607364  0.16035712    -0.92700
O1627       O  0.06368616  0.57843690  0.12515521    -0.91500
C1628       C  0.12312133  0.54630255  0.01812716     1.17500
H1629       H  0.14369653  0.60057713  0.15615826     0.33500
H1630       H  0.06663134  0.61490097  0.06571793     0.44300
H1631       H  0.14669220  0.59503531  0.97698323     0.37800
H1632       H  0.13607113  0.67787546  0.05256508     0.34300
H1633       H  0.06865490  0.63515467  0.17488017     0.26100
H1634       H  0.08194782  0.67948624  0.97638058     0.32100
H1635       H  0.13190731  0.68777900  0.97268282     0.38000
H1636       H  0.09413910  0.56504537  0.18538710     0.32400
H1637       H  0.16980309  0.57106767  0.14711499     0.31300
H1638       H  0.18839292  0.56027648  0.03776350     0.33000
H1639       H  0.18236874  0.61756771  0.95163256     0.31900
H1640       H  0.06577703  0.57007420  0.09791104     0.35900
H1641       H  0.08115607  0.56971289  0.93817712     0.28700
H1642       H  0.16119547  0.67540133  0.19140922     0.32900
H1643       H  0.18065386  0.67716870  0.97064219     0.35800
H1644       H  0.14812367  0.55679007  0.13556852     0.28400
H1645       H  0.06777342  0.56462560  0.98065818     0.41200
H1646       H  0.05037737  0.68060444  0.08085101     0.31300
H1647       H  0.05272642  0.62341820  0.14132257     0.38900
H1648       H  0.19312770  0.62507760  0.99524143     0.30800
H1649       H  0.07254856  0.69577463  0.01198312     0.30800
H1650       H  0.17477718  0.68252943  0.15041821     0.31100
Zr1651     Zr  0.14579698  0.64659274  0.62470587     2.17500
O1652       O  0.17226798  0.67009095  0.66579299    -0.51300
O1653       O  0.13783277  0.63702772  0.69988506    -0.74500
O1654       O  0.13422785  0.68660524  0.62989686    -0.81300
O1655       O  0.19263923  0.60418991  0.59137513    -0.83000
O1656       O  0.10067616  0.69240784  0.59506988    -0.78600
O1657       O  0.18688988  0.63853236  0.62316777    -0.90300
O1658       O  0.10725041  0.61349055  0.70348279    -0.76200
O1659       O  0.10539987  0.64232594  0.62642218    -0.85700
O1660       O  0.13913339  0.60665873  0.63164524    -0.85400
O1661       O  0.13214025  0.66189580  0.55757133    -0.72200
O1662       O  0.16213511  0.62958862  0.56193070    -0.84300
Zr1663     Zr  0.10055480  0.59968302  0.50351594     2.26400
Zr1664     Zr  0.09153736  0.65678801  0.55939295     2.06300
Zr1665     Zr  0.15546134  0.58984459  0.56895120     2.10000
Zr1666     Zr  0.09862835  0.60239860  0.63149713     1.78800
O1667       O  0.18612163  0.57212089  0.52831708    -0.93100
O1668       O  0.06261995  0.61605248  0.66100032    -0.40900
O1669       O  0.11511143  0.58480745  0.56987047    -0.77500
O1670       O  0.08396651  0.61693431  0.56588734    -0.96200
O1671       O  0.10738448  0.63946923  0.49691493    -0.89500
O1672       O  0.14101502  0.60385172  0.50209998    -0.92400
C1673       C  0.12293422  0.62540991  0.72071488     1.01400
C1674       C  0.19994975  0.62228739  0.61011436     1.14300
C1675       C  0.11780041  0.69941494  0.61701578     1.05100
O1676       O  0.05889625  0.66756015  0.60298110    -0.94500
O1677       O  0.05679368  0.64668200  0.52050200    -0.90300
O1678       O  0.06232772  0.61366618  0.48405404    -0.83400
C1679       C  0.04975742  0.63067207  0.49551485     1.11700
O1680       O  0.18089671  0.66834661  0.49720626    -0.96500
Zr1681     Zr  0.14761552  0.64362125  0.49559779     1.88900
O1682       O  0.10666816  0.60810655  0.42735335    -0.73100
O1683       O  0.08740695  0.68729301  0.50712047    -0.52400
O1684       O  0.13916887  0.68110744  0.46630623    -0.97100
O1685       O  0.18142927  0.62960421  0.45851731    -0.54300
O1686       O  0.13406895  0.63532857  0.42416486    -0.73700
C1687       C  0.11952960  0.62203942  0.40654840     0.98700
O1688       O  0.07206782  0.56944443  0.50341403    -0.62500
O1689       O  0.16300404  0.56376130  0.62804594    -0.57300
O1690       O  0.11537969  0.56157210  0.48754852    -0.94000
O1691       O  0.14311032  0.55434268  0.53698544    -0.92400
O1692       O  0.10605008  0.56692069  0.66954032    -0.92700
O1693       O  0.06905099  0.57351214  0.62566409    -0.91500
C1694       C  0.12910008  0.54815992  0.50766247     1.17500
H1695       H  0.14608346  0.60057759  0.65725109     0.33500
H1696       H  0.06781360  0.61397201  0.56651831     0.44300
H1697       H  0.14741164  0.59552132  0.47829470     0.37800
H1698       H  0.13615797  0.67771129  0.55413039     0.34300
H1699       H  0.06545346  0.63216655  0.66864656     0.26100
H1700       H  0.07650936  0.69807338  0.52035279     0.32100
H1701       H  0.14860405  0.68216231  0.44014808     0.38000
H1702       H  0.12031299  0.56957484  0.68572818     0.32400
H1703       H  0.15154702  0.55152497  0.62476318     0.31300
H1704       H  0.19026935  0.55829934  0.54475482     0.33000
H1705       H  0.17742966  0.62938674  0.42773469     0.31900
H1706       H  0.07294165  0.56486190  0.59947487     0.35900
H1707       H  0.07853028  0.55670316  0.52029727     0.28700
H1708       H  0.16313506  0.67748678  0.68853263     0.32900
H1709       H  0.19041405  0.66238670  0.52091204     0.35800
H1710       H  0.17770159  0.55640419  0.62088491     0.28400
H1711       H  0.05986538  0.57531325  0.52230676     0.41200
H1712       H  0.05320110  0.68186417  0.58997875     0.31300
H1713       H  0.05192153  0.61683842  0.63651958     0.38900
H1714       H  0.18276986  0.61335418  0.46653974     0.30800
H1715       H  0.10214312  0.69545528  0.50787637     0.30800
H1716       H  0.17697858  0.68262363  0.64659436     0.31100
Zr1717     Zr  0.10179497  0.39709130  0.49350081     2.17500
O1718       O  0.07936976  0.42369302  0.53638020    -0.51300
O1719       O  0.11117202  0.38864494  0.56879445    -0.74500
O1720       O  0.06161950  0.38624603  0.49919604    -0.81300
O1721       O  0.14577122  0.44261489  0.46039799    -0.83000
O1722       O  0.05567431  0.35222269  0.46618479    -0.78600
O1723       O  0.11074427  0.43799960  0.49003405    -0.90300
O1724       O  0.13503224  0.35823799  0.57204719    -0.76200
O1725       O  0.10673999  0.35683106  0.49706839    -0.85700
O1726       O  0.14189764  0.39091914  0.49789004    -0.85400
O1727       O  0.08555417  0.38228983  0.42790288    -0.72200
O1728       O  0.11783917  0.41297418  0.42951043    -0.84300
Zr1729     Zr  0.14678510  0.35045617  0.37144187     2.26400
Zr1730     Zr  0.09120034  0.34181091  0.43169695     2.06300
Zr1731     Zr  0.15776619  0.40587212  0.43314092     2.10000
Zr1732     Zr  0.14684106  0.35066747  0.50022753     1.78800
O1733       O  0.16962378  0.43288400  0.37849388    -0.93100
O1734       O  0.13498041  0.31345390  0.52647853    -0.40900
O1735       O  0.16315209  0.36557013  0.43621675    -0.77500
O1736       O  0.13139774  0.33476134  0.43660686    -0.96200
O1737       O  0.10678138  0.35725543  0.36708517    -0.89500
O1738       O  0.14243481  0.39082280  0.36780853    -0.92400
C1739       C  0.12270147  0.37352538  0.58947957     1.01400
C1740       C  0.12769027  0.45044938  0.47818827     1.14300
C1741       C  0.04875433  0.36969951  0.48723064     1.05100
O1742       O  0.07929857  0.31175575  0.48041521    -0.94500
O1743       O  0.10127434  0.30551911  0.39861826    -0.90300
O1744       O  0.13504637  0.31052329  0.36415477    -0.83400
C1745       C  0.11838421  0.29804692  0.37708895     1.11700
O1746       O  0.07376312  0.42738980  0.37341906    -0.96500
Zr1747     Zr  0.10245159  0.39768826  0.36498741     1.88900
O1748       O  0.13865598  0.35993044  0.29603682    -0.73100
O1749       O  0.06089907  0.33391668  0.38041803    -0.52400
O1750       O  0.06647200  0.39005301  0.32883449    -0.97100
O1751       O  0.11589135  0.43310772  0.33306986    -0.54300
O1752       O  0.11088726  0.38693953  0.29265412    -0.73700
C1753       C  0.12497188  0.37315504  0.27534720     0.98700
O1754       O  0.17090868  0.32143021  0.33841865    -0.62500
O1755       O  0.18742662  0.41906183  0.48195090    -0.57300
O1756       O  0.18729567  0.36056523  0.36842371    -0.94000
O1757       O  0.19422677  0.39218043  0.40849368    -0.92400
O1758       O  0.18091039  0.36063534  0.54073929    -0.92700
O1759       O  0.17868095  0.32409967  0.49677834    -0.91500
C1760       C  0.20066384  0.37558082  0.38476290     1.17500
H1761       H  0.14818657  0.39839790  0.52276056     0.33500
H1762       H  0.13489688  0.31881782  0.43991384     0.44300
H1763       H  0.15031867  0.39686661  0.34321388     0.37800
H1764       H  0.06972184  0.38624822  0.42431108     0.34300
H1765       H  0.14028030  0.31293744  0.55656437     0.26100
H1766       H  0.06879295  0.32870899  0.35418701     0.32100
H1767       H  0.05862360  0.37884227  0.34727737     0.38000
H1768       H  0.18128034  0.37748178  0.54146488     0.32400
H1769       H  0.19298884  0.43344551  0.46918121     0.31300
H1770       H  0.18409569  0.43933440  0.38934567     0.33000
H1771       H  0.10484219  0.43642644  0.30990259     0.31900
H1772       H  0.18452811  0.32558529  0.46720466     0.35900
H1773       H  0.17888116  0.32905997  0.31449250     0.28700
H1774       H  0.07170011  0.41443146  0.55856069     0.32900
H1775       H  0.07903074  0.43643005  0.39829385     0.35800
H1776       H  0.17938767  0.42388938  0.50827243     0.28400
H1777       H  0.18295058  0.31787080  0.35966023     0.41200
H1778       H  0.06905096  0.30197128  0.46321740     0.31300
H1779       H  0.11818662  0.31446966  0.52859724     0.38900
H1780       H  0.13010577  0.42910521  0.31780659     0.30800
H1781       H  0.05327419  0.32011904  0.39159717     0.30800
H1782       H  0.06696011  0.42918111  0.51750210     0.31100
Zr1783     Zr  0.14781318  0.35117273  0.87198668     2.17500
O1784       O  0.17632274  0.32915827  0.83279686    -0.51300
O1785       O  0.13879010  0.35871103  0.79633372    -0.74500
O1786       O  0.13787384  0.31087214  0.86594338    -0.81300
O1787       O  0.19338880  0.39431474  0.90785354    -0.83000
O1788       O  0.10272968  0.30549252  0.89462965    -0.78600
O1789       O  0.18810901  0.36115878  0.87144329    -0.90300
O1790       O  0.11339106  0.38778377  0.79169472    -0.76200
O1791       O  0.10783795  0.35694629  0.86581243    -0.85700
O1792       O  0.14288563  0.39148907  0.86882922    -0.85400
O1793       O  0.13214550  0.33477798  0.93659342    -0.72200
O1794       O  0.16303972  0.36656815  0.93746348    -0.84300
Zr1795     Zr  0.10032400  0.39587061  0.99282544     2.26400
Zr1796     Zr  0.09185902  0.34096202  0.92989845     2.06300
Zr1797     Zr  0.15680235  0.40670841  0.93521486     2.10000
Zr1798     Zr  0.10292517  0.39727592  0.86380122     1.78800
O1799       O  0.18380975  0.41654762  0.99154309    -0.93100
O1800       O  0.06731714  0.38659075  0.82902548    -0.40900
O1801       O  0.11662425  0.41265671  0.92968772    -0.77500
O1802       O  0.08576414  0.38131877  0.92592376    -0.96200
O1803       O  0.10637125  0.35578713  0.99614028    -0.89500
O1804       O  0.14055166  0.39109591  0.99903370    -0.92400
C1805       C  0.12642544  0.37281911  0.77493715     1.01400
C1806       C  0.20069392  0.37725574  0.88613732     1.14300
C1807       C  0.12087991  0.29820410  0.87608550     1.05100
O1808       O  0.06116022  0.33065507  0.88111886    -0.94500
O1809       O  0.05535622  0.35124199  0.96181114    -0.90300
O1810       O  0.06025653  0.38475516  0.99729428    -0.83400
C1811       C  0.04781650  0.36829056  0.98349493     1.11700
O1812       O  0.17549368  0.32126833  0.99330492    -0.96500
Zr1813     Zr  0.14671627  0.35101654  0.00097462     1.88900
O1814       O  0.10875850  0.38770975  0.06866515    -0.73100
O1815       O  0.08275940  0.31051119  0.97989635    -0.52400
O1816       O  0.13443500  0.31646691  0.03745557    -0.97100
O1817       O  0.18333614  0.36111334  0.03245929    -0.54300
O1818       O  0.13769193  0.36202751  0.07317815    -0.73700
C1819       C  0.12292680  0.37530291  0.08995840     0.98700
O1820       O  0.07117868  0.41963051  0.02642771    -0.62500
O1821       O  0.17119236  0.43756409  0.89061217    -0.57300
O1822       O  0.11018757  0.43622838  0.99702367    -0.94000
O1823       O  0.14296105  0.44316776  0.96070207    -0.92400
O1824       O  0.11759155  0.43234671  0.83283332    -0.92700
O1825       O  0.07439106  0.42741141  0.86654445    -0.91500
C1826       C  0.12571962  0.44961305  0.98283404     1.17500
H1827       H  0.15089052  0.39795886  0.84473814     0.33500
H1828       H  0.06990255  0.38501187  0.92181892     0.44300
H1829       H  0.14640712  0.39873330  0.02412085     0.37800
H1830       H  0.13577616  0.31888631  0.94033711     0.34300
H1831       H  0.06770891  0.39420654  0.80076539     0.26100
H1832       H  0.07451060  0.29903738  0.96259476     0.32100
H1833       H  0.12010188  0.32071051  0.05212608     0.38000
H1834       H  0.10827202  0.43493167  0.80683426     0.32400
H1835       H  0.18343037  0.44468904  0.90785012     0.31300
H1836       H  0.19587974  0.42537730  0.97699184     0.33000
H1837       H  0.18353074  0.35355091  0.06077819     0.31900
H1838       H  0.07837875  0.43635441  0.89236557     0.35900
H1839       H  0.07868408  0.42711419  0.05110177     0.28700
H1840       H  0.16803768  0.32169232  0.80899936     0.32900
H1841       H  0.17800816  0.31505601  0.02239317     0.35800
H1842       H  0.17925589  0.43009170  0.86658748     0.28400
H1843       H  0.06782725  0.43207485  0.00593864     0.41200
H1844       H  0.05409344  0.31703234  0.89420183     0.31300
H1845       H  0.06907939  0.37018443  0.82239692     0.38900
H1846       H  0.18212034  0.37754046  0.03919508     0.30800
H1847       H  0.09761193  0.30326605  0.98638648     0.30800
H1848       H  0.18096044  0.31657065  0.85203549     0.31100
Zr1849     Zr  0.35159906  0.35057522  0.37301870     2.17500
O1850       O  0.32260673  0.32891624  0.41130745    -0.51300
O1851       O  0.35980176  0.35821809  0.44861035    -0.74500
O1852       O  0.36235572  0.31066222  0.38122233    -0.81300
O1853       O  0.30492343  0.39292327  0.33555741    -0.83000
O1854       O  0.39708828  0.30515511  0.35073796    -0.78600
O1855       O  0.31089090  0.35948981  0.37055069    -0.90300
O1856       O  0.38633569  0.38618489  0.45340816    -0.76200
O1857       O  0.39159684  0.35681400  0.37971470    -0.85700
O1858       O  0.35639312  0.39081010  0.37726282    -0.85400
O1859       O  0.36785177  0.33401705  0.30912025    -0.72200
O1860       O  0.33625238  0.36573744  0.30769106    -0.84300
Zr1861     Zr  0.39792175  0.39617571  0.25308581     2.26400
Zr1862     Zr  0.40798032  0.34094177  0.31603691     2.06300
Zr1863     Zr  0.34173821  0.40589970  0.31137889     2.10000
Zr1864     Zr  0.39641852  0.39709932  0.38187786     1.78800
O1865       O  0.31406873  0.41839151  0.25810519    -0.93100
O1866       O  0.43236620  0.38845438  0.41783746    -0.40900
O1867       O  0.38169776  0.41240484  0.31669701    -0.77500
O1868       O  0.41380997  0.38150939  0.31924626    -0.96200
O1869       O  0.39312989  0.35586122  0.24999531    -0.89500
O1870       O  0.35789030  0.39031717  0.24729629    -0.92400
C1871       C  0.37279256  0.37167409  0.46996142     1.01400
C1872       C  0.29789835  0.37540188  0.35609202     1.14300
C1873       C  0.37930862  0.29798148  0.37072191     1.05100
O1874       O  0.43770529  0.33185094  0.36789498    -0.94500
O1875       O  0.44372468  0.35097998  0.28138984    -0.90300
O1876       O  0.43768126  0.38437165  0.24607995    -0.83400
C1877       C  0.45051687  0.36794310  0.25876880     1.11700
O1878       O  0.32404455  0.32080286  0.25354643    -0.96500
Zr1879     Zr  0.35310048  0.34999486  0.24481767     1.88900
O1880       O  0.38868863  0.38846152  0.17729598    -0.73100
O1881       O  0.41954927  0.31038364  0.26803724    -0.52400
O1882       O  0.36470154  0.31386766  0.21319712    -0.97100
O1883       O  0.31807554  0.35948553  0.20675411    -0.54300
O1884       O  0.36491550  0.35814028  0.17285869    -0.73700
C1885       C  0.37726879  0.37355404  0.15588899     0.98700
O1886       O  0.42112046  0.42328268  0.21316449    -0.62500
O1887       O  0.32830252  0.43379047  0.36343937    -0.57300
O1888       O  0.38948880  0.43718089  0.25584957    -0.94000
O1889       O  0.35433902  0.44242856  0.28450849    -0.92400
O1890       O  0.38386983  0.43254955  0.41508875    -0.92700
O1891       O  0.42417547  0.42782572  0.37835901    -0.91500
C1892       C  0.37262646  0.44993591  0.26711633     1.17500
H1893       H  0.34834730  0.39680491  0.40173958     0.33500
H1894       H  0.42967741  0.38536712  0.32241802     0.44300
H1895       H  0.35173639  0.39781086  0.22229408     0.37800
H1896       H  0.36442074  0.31807178  0.30570543     0.34300
H1897       H  0.42907873  0.37528893  0.43661652     0.26100
H1898       H  0.42958621  0.30052854  0.28560434     0.32100
H1899       H  0.35407698  0.31152709  0.18893509     0.38000
H1900       H  0.36753655  0.43040405  0.42161160     0.32400
H1901       H  0.31617589  0.44235002  0.34830551     0.31300
H1902       H  0.30988318  0.43408405  0.26671592     0.33000
H1903       H  0.31924590  0.35130190  0.17912087     0.31900
H1904       H  0.42014413  0.43635609  0.35206719     0.35900
H1905       H  0.43408286  0.42729192  0.23200881     0.28700
H1906       H  0.33043190  0.32219741  0.43641775     0.32900
H1907       H  0.31371069  0.32690182  0.27581944     0.35800
H1908       H  0.32012671  0.42505301  0.38570889     0.28400
H1909       H  0.42792663  0.41460921  0.18917123     0.41200
H1910       H  0.43205657  0.33781832  0.39555083     0.31300
H1911       H  0.44246459  0.38220810  0.39535627     0.38900
H1912       H  0.31950433  0.37577142  0.19906238     0.53200
H1913       H  0.40558139  0.30125383  0.26355179     0.30800
H1914       H  0.31878017  0.31579100  0.39277895     0.31100
Zr1915     Zr  0.35213092  0.35256208  0.87398657     2.17500
O1916       O  0.32491580  0.33172628  0.91806137    -0.51300
O1917       O  0.36213226  0.36122619  0.94889766    -0.74500
O1918       O  0.36343270  0.31260564  0.88189182    -0.81300
O1919       O  0.30495744  0.39447580  0.83616398    -0.83000
O1920       O  0.39763820  0.30696608  0.84937471    -0.78600
O1921       O  0.31111485  0.36119329  0.87180717    -0.90300
O1922       O  0.38936841  0.38854897  0.95127725    -0.76200
O1923       O  0.39229574  0.35832630  0.87701847    -0.85700
O1924       O  0.35720454  0.39283590  0.87602483    -0.85400
O1925       O  0.36680015  0.33537941  0.80916011    -0.72200
O1926       O  0.33585385  0.36736282  0.80900962    -0.84300
Zr1927     Zr  0.39672601  0.39709526  0.74939283     2.26400
Zr1928     Zr  0.40708836  0.34211740  0.81201770     2.06300
Zr1929     Zr  0.34148968  0.40751423  0.81039129     2.10000
Zr1930     Zr  0.39737607  0.39857973  0.87803966     1.78800
O1931       O  0.31470786  0.41828940  0.75421008    -0.93100
O1932       O  0.43535892  0.38902146  0.90413623    -0.40900
O1933       O  0.38158748  0.41365764  0.81355576    -0.77500
O1934       O  0.41348731  0.38258639  0.81461625    -0.96200
O1935       O  0.39126275  0.35687536  0.74692857    -0.89500
O1936       O  0.35655049  0.39136149  0.74593560    -0.92400
C1937       C  0.37581109  0.37450865  0.96926799     1.01400
C1938       C  0.29804140  0.37704506  0.85708941     1.14300
C1939       C  0.38034087  0.29994004  0.87079629     1.05100
O1940       O  0.43938318  0.33291822  0.85789382    -0.94500
O1941       O  0.44218087  0.35085396  0.77442862    -0.90300
O1942       O  0.43649067  0.38487901  0.74116890    -0.83400
C1943       C  0.44914783  0.36797242  0.75252585     1.11700
O1944       O  0.31997535  0.32432731  0.75557468    -0.96500
Zr1945     Zr  0.35117844  0.35106377  0.74523399     1.88900
O1946       O  0.38672723  0.38826024  0.67500479    -0.73100
O1947       O  0.41501261  0.31126362  0.76199688    -0.52400
O1948       O  0.36149624  0.31342851  0.71864244    -0.97100
O1949       O  0.31687378  0.36063197  0.70490394    -0.54300
O1950       O  0.36369027  0.35727135  0.67297207    -0.73700
C1951       C  0.37563050  0.37268578  0.65496564     0.98700
O1952       O  0.41870837  0.42361840  0.70580835    -0.62500
O1953       O  0.32664561  0.43687052  0.85817277    -0.57300
O1954       O  0.38830597  0.43821103  0.75149944    -0.94000
O1955       O  0.35438835  0.44421035  0.78469312    -0.92400
O1956       O  0.38592455  0.43396594  0.91251807    -0.92700
O1957       O  0.42414447  0.43014732  0.87465454    -0.91500
C1958       C  0.37216263  0.45132484  0.76495120     1.17500
H1959       H  0.34976148  0.39925338  0.90080338     0.33500
H1960       H  0.42946869  0.38614433  0.81696835     0.44300
H1961       H  0.35018271  0.39862431  0.72088755     0.37800
H1962       H  0.36320011  0.31942526  0.80654277     0.34300
H1963       H  0.43416887  0.38941471  0.93572331     0.26100
H1964       H  0.42721845  0.30223998  0.77592331     0.32100
H1965       H  0.35301959  0.31182092  0.69138175     0.38000
H1966       H  0.36962836  0.43579027  0.90513298     0.32400
H1967       H  0.31118759  0.44032626  0.84718802     0.31300
H1968       H  0.30545526  0.43069242  0.76685531     0.33000
H1969       H  0.31736353  0.35064539  0.67936408     0.31900
H1970       H  0.42084592  0.43767413  0.84696256     0.35900
H1971       H  0.43190240  0.42819399  0.72360056     0.28700
H1972       H  0.33393341  0.32509245  0.94181526     0.32900
H1973       H  0.31311420  0.32872870  0.78331547     0.35800
H1974       H  0.32397047  0.42919854  0.88590637     0.28400
H1975       H  0.42529985  0.41442768  0.68228595     0.41200
H1976       H  0.43267845  0.33027235  0.88651588     0.31300
H1977       H  0.43737650  0.37271269  0.89716915     0.38900
H1978       H  0.31947738  0.37613341  0.69350063     0.30800
H1979       H  0.40140587  0.30134586  0.76316738     0.30800
H1980       H  0.32008034  0.31848356  0.90067754     0.31100
Zr1981     Zr  0.35043905  0.64526972  0.12282895     2.17500
O1982       O  0.32324911  0.66724266  0.08029994    -0.51300
O1983       O  0.36042234  0.63666057  0.04811782    -0.74500
O1984       O  0.36076988  0.68574175  0.11654926    -0.81300
O1985       O  0.30516563  0.60113618  0.15866860    -0.83000
O1986       O  0.39506982  0.69165634  0.14867386    -0.78600
O1987       O  0.30991206  0.63420065  0.12208283    -0.90300
O1988       O  0.39084213  0.61280795  0.04551664    -0.76200
O1989       O  0.39066174  0.63994280  0.11890525    -0.85700
O1990       O  0.35663140  0.60516468  0.12009210    -0.85400
O1991       O  0.36512885  0.66201369  0.18800004    -0.72200
O1992       O  0.33480427  0.62987464  0.18771466    -0.84300
Zr1993     Zr  0.39779310  0.60158310  0.24685160     2.26400
Zr1994     Zr  0.40566796  0.65625713  0.18345740     2.06300
Zr1995     Zr  0.34222423  0.58986204  0.18586468     2.10000
Zr1996     Zr  0.39676675  0.59979408  0.11777616     1.78800
O1997       O  0.31344552  0.57735012  0.23675481    -0.93100
O1998       O  0.43562812  0.60643041  0.09340005    -0.40900
O1999       O  0.38256597  0.58447587  0.18320916    -0.77500
O2000       O  0.41302915  0.61608451  0.18066801    -0.96200
O2001       O  0.39063471  0.64149001  0.24915272    -0.89500
O2002       O  0.35740072  0.60575401  0.25076524    -0.92400
C2003       C  0.37579940  0.62541616  0.02768277     1.01400
C2004       C  0.29736155  0.61792454  0.13668282     1.14300
C2005       C  0.37746611  0.69860303  0.12801138     1.05100
O2006       O  0.43463057  0.66486880  0.13022877    -0.94500
O2007       O  0.44176866  0.64769630  0.21822923    -0.90300
O2008       O  0.43755948  0.61388626  0.25289572    -0.83400
C2009       C  0.44958613  0.63090479  0.24016943     1.11700
O2010       O  0.31921832  0.67327236  0.25149738    -0.96500
Zr2011     Zr  0.35026349  0.64569073  0.25192361     1.88900
O2012       O  0.38951339  0.61169777  0.32139722    -0.73100
O2013       O  0.41719873  0.68699482  0.23120547    -0.52400
O2014       O  0.35942909  0.68332798  0.27964241    -0.97100
O2015       O  0.31493044  0.63224118  0.28412229    -0.54300
O2016       O  0.36199962  0.63876541  0.32456683    -0.73700
C2017       C  0.37647173  0.62542841  0.34217362     0.98700
O2018       O  0.42582006  0.57859572  0.28544513    -0.62500
O2019       O  0.33406508  0.55954931  0.13479766    -0.57300
O2020       O  0.38819234  0.56078344  0.25019864    -0.94000
O2021       O  0.35485120  0.55394999  0.21518362    -0.92400
O2022       O  0.38068824  0.56559960  0.08552397    -0.92700
O2023       O  0.42221077  0.56701739  0.11695744    -0.91500
C2024       C  0.37224571  0.54750931  0.23681576     1.17500
H2025       H  0.34912838  0.59863934  0.09544967     0.33500
H2026       H  0.42903338  0.61279197  0.17757109     0.44300
H2027       H  0.35134935  0.59810889  0.27563642     0.37800
H2028       H  0.36116628  0.67785817  0.19124610     0.34300
H2029       H  0.43777489  0.62309473  0.09583969     0.26100
H2030       H  0.42911945  0.69533792  0.21524918     0.32100
H2031       H  0.37611164  0.68293940  0.28422688     0.38000
H2032       H  0.37708793  0.56984811  0.05560910     0.32400
H2033       H  0.32326408  0.54938013  0.14977701     0.31300
H2034       H  0.30948557  0.56168051  0.22770910     0.33000
H2035       H  0.31950130  0.61998751  0.30414838     0.31900
H2036       H  0.42383735  0.56274122  0.14746675     0.35900
H2037       H  0.41735386  0.57081226  0.30856547     0.28700
H2038       H  0.33206405  0.67338001  0.05590452     0.32900
H2039       H  0.31030679  0.66957515  0.22547576     0.35800
H2040       H  0.32493281  0.56678754  0.11187579     0.28400
H2041       H  0.43048918  0.56632115  0.26552689     0.41200
H2042       H  0.44572898  0.67470040  0.14532613     0.31300
H2043       H  0.43529355  0.60348480  0.06220615     0.38900
H2044       H  0.30685103  0.62426069  0.26067288     0.30800
H2045       H  0.40406147  0.69758815  0.23190293     0.30800
H2046       H  0.31927545  0.68075230  0.09773213     0.31100
Zr2047     Zr  0.35197007  0.64737646  0.62393209     2.17500
O2048       O  0.32522446  0.66967025  0.58090221    -0.51300
O2049       O  0.36039637  0.63813092  0.54903666    -0.74500
O2050       O  0.36274720  0.68765658  0.61787891    -0.81300
O2051       O  0.30516780  0.60522708  0.66024905    -0.83000
O2052       O  0.39765501  0.69277076  0.64810419    -0.78600
O2053       O  0.31109647  0.63832776  0.62399011    -0.90300
O2054       O  0.38805280  0.61120638  0.54555574    -0.76200
O2055       O  0.39214132  0.64146715  0.61922402    -0.85700
O2056       O  0.35730238  0.60708693  0.62081563    -0.85400
O2057       O  0.36757425  0.66368071  0.68873520    -0.72200
O2058       O  0.33612123  0.63232712  0.68894259    -0.84300
Zr2059     Zr  0.39875549  0.60223090  0.74576599     2.26400
Zr2060     Zr  0.40798940  0.65724211  0.68358159     2.06300
Zr2061     Zr  0.34216408  0.59212639  0.68624034     2.10000
Zr2062     Zr  0.39746901  0.60120858  0.61770352     1.78800
O2063       O  0.31381241  0.58028333  0.73844915    -0.93100
O2064       O  0.43359768  0.61074966  0.58382961    -0.40900
O2065       O  0.38234655  0.58592842  0.68228058    -0.77500
O2066       O  0.41469452  0.61691318  0.68013016    -0.96200
O2067       O  0.39291238  0.64234323  0.74929922    -0.89500
O2068       O  0.35849434  0.60747704  0.75047551    -0.92400
C2069       C  0.37389245  0.62490846  0.52818787     1.01400
C2070       C  0.29810817  0.62246828  0.63855990     1.14300
C2071       C  0.37978551  0.70019585  0.62872316     1.05100
O2072       O  0.43837903  0.66494326  0.63264988    -0.94500
O2073       O  0.44384672  0.64777092  0.71903718    -0.90300
O2074       O  0.43876547  0.61382702  0.75276682    -0.83400
C2075       C  0.45124966  0.63067012  0.74077387     1.11700
O2076       O  0.32309136  0.67667220  0.75145083    -0.96500
Zr2077     Zr  0.35268958  0.64755995  0.75272104     1.88900
O2078       O  0.39104257  0.61105651  0.82102222    -0.73100
O2079       O  0.41833976  0.68845198  0.73114958    -0.52400
O2080       O  0.36511409  0.68368507  0.78309227    -0.97100
O2081       O  0.31675535  0.63705931  0.78611872    -0.54300
O2082       O  0.36292847  0.63754534  0.82480068    -0.73700
C2083       C  0.37734953  0.62401001  0.84194259     0.98700
O2084       O  0.42107746  0.57404134  0.78518373    -0.62500
O2085       O  0.33065472  0.56254785  0.63586062    -0.57300
O2086       O  0.38946880  0.56161958  0.74686786    -0.94000
O2087       O  0.35483542  0.55595086  0.71559845    -0.92400
O2088       O  0.38577483  0.56618310  0.58262480    -0.92700
O2089       O  0.42498568  0.57039125  0.62555922    -0.91500
C2090       C  0.37275532  0.54890634  0.73518630     1.17500
H2091       H  0.34963570  0.60063860  0.59627059     0.33500
H2092       H  0.43063220  0.61333078  0.67680229     0.44300
H2093       H  0.35242990  0.59989784  0.77540329     0.37800
H2094       H  0.36396213  0.67958801  0.69232326     0.34300
H2095       H  0.43465814  0.60037525  0.55890073     0.26100
H2096       H  0.42879995  0.69807471  0.71415703     0.32100
H2097       H  0.35957891  0.68348468  0.81300671     0.38000
H2098       H  0.37120794  0.56207855  0.59647948     0.32400
H2099       H  0.31960319  0.55309075  0.65181167     0.31300
H2100       H  0.30531539  0.56785283  0.72418634     0.33000
H2101       H  0.31751769  0.64341488  0.81544462     0.31900
H2102       H  0.42671730  0.56848712  0.65688254     0.35900
H2103       H  0.43395367  0.56988257  0.76632977     0.28700
H2104       H  0.33436785  0.67666939  0.55778447     0.32900
H2105       H  0.31504035  0.67419585  0.72396927     0.35800
H2106       H  0.32136724  0.57042543  0.61389198     0.28400
H2107       H  0.42810198  0.58239027  0.80936569     0.41200
H2108       H  0.44533743  0.67933451  0.64273523     0.31300
H2109       H  0.43113513  0.62600911  0.57112088     0.38900
H2110       H  0.31755401  0.62036355  0.79010190     0.30800
H2111       H  0.40428170  0.69768108  0.73395954     0.30800
H2112       H  0.32034337  0.68257855  0.59914051     0.31100
C2113       C  0.37601795  0.62628417  0.98002033    -0.05300
C2114       C  0.35648441  0.61972934  0.95658360    -0.02400
C2115       C  0.35751419  0.61763536  0.91165306     0.02600
C2116       C  0.37762157  0.62337572  0.88939382    -0.05300
C2117       C  0.39704157  0.63040413  0.91251523    -0.02400
C2118       C  0.39632999  0.63163582  0.95770430     0.02600
C2119       C  0.33533626  0.61471309  0.97860258     0.37300
C2120       C  0.41757120  0.63685756  0.88971441     0.37200
C2121       C  0.41629659  0.63924463  0.98106909     0.35700
C2122       C  0.33819679  0.60838498  0.88840887     0.35700
N2123       N  0.43226744  0.64540338  0.99948166    -0.39200
N2124       N  0.32293997  0.60061507  0.87003395    -0.39200
N2125       N  0.43390117  0.64199204  0.87139586    -0.38600
N2126       N  0.31833440  0.61093749  0.99589286    -0.38600
C2127       C  0.37362457  0.62536142  0.48061735    -0.05300
C2128       C  0.37524832  0.64619475  0.45826643    -0.02400
C2129       C  0.37673538  0.64630111  0.41310378     0.02600
C2130       C  0.37737757  0.62551126  0.38993045    -0.05300
C2131       C  0.37712196  0.60474307  0.41274096    -0.02400
C2132       C  0.37413260  0.60466072  0.45744549     0.02600
C2133       C  0.37641226  0.66748425  0.48186977     0.37300
C2134       C  0.38052324  0.58329951  0.39065840     0.37200
C2135       C  0.37062800  0.58310421  0.47920184     0.35700
C2136       C  0.37903009  0.66786947  0.39090337     0.35700
N2137       N  0.36753786  0.56578436  0.49585706    -0.39200
N2138       N  0.38102061  0.68521552  0.37373787    -0.39200
N2139       N  0.38407527  0.56619798  0.37352472    -0.38600
N2140       N  0.37745049  0.68432759  0.50105311    -0.38600
C2141       C  0.37416334  0.47642552  0.75815765    -0.05300
C2142       C  0.36920045  0.49181486  0.79196831    -0.02400
C2143       C  0.36909307  0.51555306  0.78463439     0.02600
C2144       C  0.37440665  0.52417032  0.74382497    -0.05300
C2145       C  0.38046469  0.50902732  0.71066464    -0.02400
C2146       C  0.38019248  0.48526531  0.71761524     0.02600
C2147       C  0.36474670  0.48343405  0.83478696     0.37300
C2148       C  0.38709755  0.51789612  0.66923212     0.37200
C2149       C  0.38532880  0.47004273  0.68234701     0.35700
C2150       C  0.36307904  0.53114528  0.81891635     0.35700
N2151       N  0.38952269  0.45812362  0.65391528    -0.39200
N2152       N  0.35822777  0.54354855  0.84624773    -0.39200
N2153       N  0.39261348  0.52469750  0.63610353    -0.38600
N2154       N  0.36124891  0.47713053  0.86922714    -0.38600
C2155       C  0.37223608  0.37103245  0.51727877    -0.05300
C2156       C  0.38159574  0.35238259  0.53981091    -0.02400
C2157       C  0.38358930  0.35328408  0.58485727     0.02600
C2158       C  0.37583741  0.37266146  0.60754911    -0.05300
C2159       C  0.36637534  0.39120520  0.58491676    -0.02400
C2160       C  0.36461732  0.39039751  0.53997716     0.02600
C2161       C  0.38970664  0.33256554  0.51654800     0.37300
C2162       C  0.35768516  0.41085770  0.60789485     0.37200
C2163       C  0.35435131  0.40933608  0.51710824     0.35700
C2164       C  0.39449105  0.33471283  0.60777034     0.35700
N2165       N  0.34600466  0.42444773  0.49916292    -0.39200
N2166       N  0.40338529  0.32004139  0.62610683    -0.39200
N2167       N  0.35059282  0.42654527  0.62596415    -0.38600
N2168       N  0.39611499  0.31675495  0.49793093    -0.38600
C2169       C  0.37781026  0.37408089  0.10811520    -0.05300
C2170       C  0.38401949  0.35435264  0.08466582    -0.02400
C2171       C  0.38344303  0.35445583  0.03935269     0.02600
C2172       C  0.37599185  0.37402550  0.01702480    -0.05300
C2173       C  0.36965984  0.39366485  0.04045185    -0.02400
C2174       C  0.37028706  0.39359805  0.08571646     0.02600
C2175       C  0.39094658  0.33386178  0.10722386     0.37300
C2176       C  0.36205566  0.41389376  0.01788521     0.37200
C2177       C  0.36154702  0.41301985  0.10930002     0.35700
C2178       C  0.39156427  0.33481386  0.01560935     0.35700
N2179       N  0.35420415  0.42831649  0.12819257    -0.39200
N2180       N  0.39829107  0.31929483  0.99653341    -0.39200
N2181       N  0.35606703  0.43003345  0.99978964    -0.38600
N2182       N  0.39623239  0.31750756  0.12542572    -0.38600
C2183       C  0.37408069  0.52282262  0.24585435    -0.05300
C2184       C  0.36581330  0.51399832  0.28468353    -0.02400
C2185       C  0.36635171  0.49033635  0.29242039     0.02600
C2186       C  0.37428008  0.47506802  0.26046171    -0.05300
C2187       C  0.38247082  0.48403336  0.22136113    -0.02400
C2188       C  0.38228551  0.50778603  0.21411636     0.02600
C2189       C  0.35522358  0.52908458  0.31562358     0.37300
C2190       C  0.39003598  0.46891999  0.18746403     0.37200
C2191       C  0.38952447  0.51661749  0.17299440     0.35700
C2192       C  0.35896817  0.48200237  0.33383525     0.35700
N2193       N  0.39513385  0.52326175  0.13979912    -0.39200
N2194       N  0.35309075  0.47591979  0.36725082    -0.39200
N2195       N  0.39611450  0.45709973  0.16010019    -0.38600
N2196       N  0.34618199  0.54074445  0.34018841    -0.38600
C2197       C  0.27317253  0.37527984  0.86442503    -0.05300
C2198       C  0.25787715  0.37449223  0.82935764    -0.02400
C2199       C  0.23412797  0.37458776  0.83642655     0.02600
C2200       C  0.22555480  0.37583751  0.87853343    -0.05300
C2201       C  0.24084999  0.37664674  0.91350511    -0.02400
C2202       C  0.26455298  0.37634762  0.90646352     0.02600
C2203       C  0.26648745  0.37429446  0.78587033     0.37300
C2204       C  0.23226680  0.37813371  0.95692235     0.37200
C2205       C  0.28005270  0.37880638  0.94240367     0.35700
C2206       C  0.21850753  0.37487744  0.80031429     0.35700
N2207       N  0.29233049  0.38105109  0.97111170    -0.39200
N2208       N  0.20595651  0.37529436  0.77170035    -0.39200
N2209       N  0.22561014  0.37952396  0.99165332    -0.38600
N2210       N  0.27310074  0.37440712  0.75100393    -0.38600
C2211       C  0.12266458  0.37371051  0.63699440    -0.05300
C2212       C  0.13228357  0.39225076  0.65934034    -0.02400
C2213       C  0.13423952  0.39155787  0.70436987     0.02600
C2214       C  0.12690292  0.37219221  0.72741023    -0.05300
C2215       C  0.11806098  0.35329318  0.70497104    -0.02400
C2216       C  0.11586424  0.35407244  0.65993799     0.02600
C2217       C  0.14145628  0.41144304  0.63575992     0.37300
C2218       C  0.11087634  0.33318534  0.72828699     0.37200
C2219       C  0.10641942  0.33468240  0.63721654     0.35700
C2220       C  0.14464592  0.41045710  0.72700642     0.35700
N2221       N  0.09890719  0.31918422  0.61918501    -0.39200
N2222       N  0.15307815  0.42544061  0.74512143    -0.39200
N2223       N  0.10524489  0.31710801  0.74688275    -0.38600
N2224       N  0.14901398  0.42657288  0.61679609    -0.38600
C2225       C  0.12521672  0.37300370  0.22790167    -0.05300
C2226       C  0.11047770  0.35840060  0.20506388    -0.02400
C2227       C  0.10929867  0.35959603  0.15994411     0.02600
C2228       C  0.12239177  0.37580436  0.13744497    -0.05300
C2229       C  0.13695827  0.39057967  0.16034744    -0.02400
C2230       C  0.13825636  0.38927450  0.20546584     0.02600
C2231       C  0.09628679  0.34234960  0.22809494     0.37300
C2232       C  0.15093792  0.40683467  0.13740381     0.37200
C2233       C  0.15289640  0.40477777  0.22896106     0.35700
C2234       C  0.09497011  0.34380139  0.13649456     0.35700
N2235       N  0.16452320  0.41713931  0.24781985    -0.39200
N2236       N  0.08365820  0.33112497  0.11770524    -0.39200
N2237       N  0.16218380  0.41975955  0.11916868    -0.38600
N2238       N  0.08489181  0.32961157  0.24647116    -0.38600
C2239       C  0.27299987  0.37337732  0.36292696    -0.05300
C2240       C  0.26427790  0.36995702  0.40451626    -0.02400
C2241       C  0.24056398  0.37035243  0.41148139     0.02600
C2242       C  0.22540640  0.37344363  0.37676301    -0.05300
C2243       C  0.23404051  0.37540036  0.33485788    -0.02400
C2244       C  0.25778176  0.37564589  0.32797020     0.02600
C2245       C  0.27966588  0.36662400  0.44041942     0.37300
C2246       C  0.21847378  0.37774150  0.29898276     0.37200
C2247       C  0.26652154  0.37782334  0.28474717     0.35700
C2248       C  0.23177275  0.36738248  0.45448307     0.35700
N2249       N  0.27348211  0.37955360  0.25027210    -0.39200
N2250       N  0.22493017  0.36500917  0.48889539    -0.39200
N2251       N  0.20596278  0.37947451  0.27049278    -0.38600
N2252       N  0.29192755  0.36378691  0.46898875    -0.38600
C2253       C  0.27313745  0.62428204  0.63038885    -0.05300
C2254       C  0.26422380  0.61982294  0.58928358    -0.02400
C2255       C  0.24038958  0.62003854  0.58225207     0.02600
C2256       C  0.22515542  0.62455428  0.61641526    -0.05300
C2257       C  0.23424588  0.63053303  0.65685545    -0.02400
C2258       C  0.25806931  0.63016424  0.66385032     0.02600
C2259       C  0.27963334  0.61459257  0.55434698     0.37300
C2260       C  0.21918078  0.63687526  0.69165742     0.37200
C2261       C  0.26703789  0.63619501  0.70556473     0.35700
C2262       C  0.23167027  0.61651824  0.53932706     0.35700
N2263       N  0.27380689  0.64120766  0.73904710    -0.39200
N2264       N  0.22493959  0.61389170  0.50485960    -0.39200
N2265       N  0.20732289  0.64224986  0.71945697    -0.38600
N2266       N  0.29199740  0.61043601  0.52658681    -0.38600
C2267       C  0.12781042  0.52338641  0.49885382    -0.05300
C2268       C  0.13533202  0.51431397  0.45965312    -0.02400
C2269       C  0.13388216  0.49066093  0.45193101     0.02600
C2270       C  0.12643519  0.47562469  0.48462507    -0.05300
C2271       C  0.11926215  0.48481486  0.52423293    -0.02400
C2272       C  0.11971259  0.50857962  0.53106513     0.02600
C2273       C  0.14629489  0.52901498  0.42863152     0.37300
C2274       C  0.11246411  0.46989383  0.55892258     0.37200
C2275       C  0.11232466  0.51780860  0.57187894     0.35700
C2276       C  0.13956375  0.48204617  0.40975039     0.35700
N2277       N  0.10655676  0.52515465  0.60448967    -0.39200
N2278       N  0.14391975  0.47554510  0.37576427    -0.39200
N2279       N  0.10710743  0.45816133  0.58689441    -0.38600
N2280       N  0.15564582  0.54048040  0.40421738    -0.38600
C2281       C  0.12435255  0.61866088  0.85806458    -0.05300
C2282       C  0.14366009  0.61256640  0.83352416    -0.02400
C2283       C  0.14335917  0.61518468  0.78859311     0.02600
C2284       C  0.12408647  0.62464222  0.76808806    -0.05300
C2285       C  0.10477190  0.63062773  0.79262200    -0.02400
C2286       C  0.10470477  0.62716103  0.83726636     0.02600
C2287       C  0.16355281  0.60282199  0.85424298     0.37300
C2288       C  0.08516842  0.64109935  0.77214101     0.37200
C2289       C  0.08452161  0.63289834  0.86189486     0.35700
C2290       C  0.16239144  0.60706561  0.76316707     0.35700
N2291       N  0.06836752  0.63729529  0.88145865    -0.39200
N2292       N  0.17735859  0.60038654  0.74258007    -0.39200
N2293       N  0.06954984  0.64967462  0.75617270    -0.38600
N2294       N  0.17948864  0.59495006  0.87038804    -0.38600
C2295       C  0.11828953  0.62293770  0.35867900    -0.05300
C2296       C  0.11905395  0.60270854  0.33426966    -0.02400
C2297       C  0.12183043  0.60367199  0.28942628     0.02600
C2298       C  0.12190935  0.62486099  0.26772893    -0.05300
C2299       C  0.12008297  0.64514727  0.29181170    -0.02400
C2300       C  0.11851559  0.64420919  0.33701124     0.02600
C2301       C  0.11660849  0.58078148  0.35502464     0.37300
C2302       C  0.11890159  0.66697758  0.27009286     0.37200
C2303       C  0.11569613  0.66521422  0.36093627     0.35700
C2304       C  0.12569137  0.58272575  0.26579641     0.35700
N2305       N  0.11320810  0.68204037  0.37968607    -0.39200
N2306       N  0.12910811  0.56604992  0.24709420    -0.39200
N2307       N  0.11786642  0.68439615  0.25282920    -0.38600
N2308       N  0.11393624  0.56332892  0.37142081    -0.38600
C2309       C  0.27201921  0.61869581  0.12914597    -0.05300
C2310       C  0.25987753  0.63962255  0.12925830    -0.02400
C2311       C  0.23594707  0.64009732  0.12279115     0.02600
C2312       C  0.22331575  0.61954039  0.12011172    -0.05300
C2313       C  0.23544992  0.59859911  0.12265392    -0.02400
C2314       C  0.25948075  0.59824327  0.12441200     0.02600
C2315       C  0.27167066  0.66083025  0.13789843     0.37300
C2316       C  0.22345608  0.57699376  0.12487647     0.37200
C2317       C  0.27105370  0.57650779  0.11952116     0.35700
C2318       C  0.22473397  0.66197005  0.11768128     0.35700
N2319       N  0.27959051  0.55888724  0.11499266    -0.39200
N2320       N  0.21620577  0.67960801  0.11328318    -0.39200
N2321       N  0.21426517  0.55960228  0.12682956    -0.38600
N2322       N  0.28079276  0.67784267  0.14529456    -0.38600
C2323       C  0.12329523  0.47431586  0.99171662    -0.05300
C2324       C  0.12064162  0.48217849  0.03414405    -0.02400
C2325       C  0.11939110  0.50575016  0.04256376     0.02600
C2326       C  0.12133853  0.52162181  0.00878421    -0.05300
C2327       C  0.12273746  0.51376118  0.96617979    -0.02400
C2328       C  0.12360314  0.49018334  0.95765457     0.02600
C2329       C  0.11997963  0.46609746  0.06939767     0.37300
C2330       C  0.12389572  0.52995711  0.93114048     0.37200
C2331       C  0.12435313  0.48230667  0.91367348     0.35700
C2332       C  0.11531125  0.51360673  0.08589649     0.35700
N2333       N  0.12485790  0.47620429  0.87847479    -0.39200
N2334       N  0.11174156  0.51960983  0.12052176    -0.39200
N2335       N  0.12475647  0.54295841  0.90334891    -0.38600
N2336       N  0.11946051  0.45333279  0.09759760    -0.38600
C2337       C  0.52246896  0.37021199  0.74474264    -0.05300
C2338       C  0.51001735  0.38952038  0.75843459    -0.02400
C2339       C  0.48600600  0.38911179  0.75880068     0.02600
C2340       C  0.47408629  0.36959087  0.74448668    -0.05300
C2341       C  0.48649658  0.35087486  0.72801592    -0.02400
C2342       C  0.51059658  0.35120250  0.72808235     0.02600
C2343       C  0.52181617  0.40929819  0.77535362     0.37300
C2344       C  0.47451185  0.33110094  0.71165816     0.37200
C2345       C  0.52319481  0.33192197  0.71111165     0.35700
C2346       C  0.47371440  0.40803234  0.77798431     0.35700
N2347       N  0.53323709  0.31656359  0.69748169    -0.39200
N2348       N  0.46393570  0.42299329  0.79367370    -0.39200
N2349       N  0.46505980  0.31526013  0.69860153    -0.38600
N2350       N  0.53117054  0.42509867  0.78879299    -0.38600
C2351       C  0.52360266  0.37115048  0.24834720    -0.05300
C2352       C  0.51113488  0.39026378  0.26300474    -0.02400
C2353       C  0.48715749  0.38946270  0.26487499     0.02600
C2354       C  0.47533727  0.36990872  0.25051995    -0.05300
C2355       C  0.48764227  0.35167713  0.23226418    -0.02400
C2356       C  0.51170903  0.35215423  0.23161707     0.02600
C2357       C  0.52288307  0.41029179  0.27899598     0.37300
C2358       C  0.47549186  0.33245159  0.21413246     0.37200
C2359       C  0.52420137  0.33303975  0.21378643     0.35700
C2360       C  0.47485627  0.40806547  0.28510374     0.35700
N2361       N  0.53406669  0.31773510  0.19951425    -0.39200
N2362       N  0.46515421  0.42281874  0.30163415    -0.39200
N2363       N  0.46575484  0.31720387  0.19942870    -0.38600
N2364       N  0.53207845  0.42637912  0.29160841    -0.38600
C2365       C  0.62529285  0.37572305  0.51267295    -0.05300
C2366       C  0.62878747  0.39558204  0.53725045    -0.02400
C2367       C  0.62679353  0.39486554  0.58225202     0.02600
C2368       C  0.62244545  0.37395194  0.60328030    -0.05300
C2369       C  0.61954281  0.35391997  0.57851509    -0.02400
C2370       C  0.62078513  0.35486552  0.53342730     0.02600
C2371       C  0.63578235  0.41646572  0.51623871     0.37300
C2372       C  0.61427798  0.33240922  0.59907517     0.37200
C2373       C  0.61680730  0.33445420  0.50820662     0.35700
C2374       C  0.62966675  0.41566454  0.60679487     0.35700
N2375       N  0.61367382  0.31829854  0.48778698    -0.39200
N2376       N  0.63171615  0.43230745  0.62629626    -0.39200
N2377       N  0.60999661  0.31514081  0.61497542    -0.38600
N2378       N  0.64175384  0.43291626  0.49925141    -0.38600
C2379       C  0.62461057  0.37483936  0.01274221    -0.05300
C2380       C  0.62958541  0.39459647  0.03675948    -0.02400
C2381       C  0.62907714  0.39396162  0.08193742     0.02600
C2382       C  0.62291864  0.37369961  0.10353248    -0.05300
C2383       C  0.61811505  0.35385084  0.07932094    -0.02400
C2384       C  0.61920930  0.35438457  0.03417561     0.02600
C2385       C  0.63599905  0.41542188  0.01490671     0.37300
C2386       C  0.61135780  0.33294911  0.10055028     0.37200
C2387       C  0.61418956  0.33397385  0.00962582     0.35700
C2388       C  0.63600147  0.41390342  0.10613434     0.35700
N2389       N  0.61030480  0.31775310  0.98985534    -0.39200
N2390       N  0.64168624  0.42976437  0.12537871    -0.39200
N2391       N  0.60588645  0.31615906  0.11696287    -0.38600
N2392       N  0.64114815  0.43198680  0.99736468    -0.38600
C2393       C  0.52493657  0.62954416  0.74748919    -0.05300
C2394       C  0.51265477  0.64855327  0.76337335    -0.02400
C2395       C  0.48853373  0.64851764  0.76358338     0.02600
C2396       C  0.47635274  0.62933742  0.74865532    -0.05300
C2397       C  0.48863774  0.60964519  0.73611443    -0.02400
C2398       C  0.51271323  0.60983137  0.73505514     0.02600
C2399       C  0.52480123  0.66821873  0.77974593     0.37300
C2400       C  0.47664978  0.58957929  0.72096827     0.37200
C2401       C  0.52463602  0.59020224  0.71773022     0.35700
C2402       C  0.47621360  0.66828879  0.77920295     0.35700
N2403       N  0.53382434  0.57445017  0.70360043    -0.39200
N2404       N  0.46637661  0.68405079  0.79167912    -0.39200
N2405       N  0.46740390  0.57345200  0.70868157    -0.38600
N2406       N  0.53439564  0.68392351  0.79299361    -0.38600
C2407       C  0.62788432  0.47544996  0.74582283    -0.05300
C2408       C  0.64882244  0.48747789  0.74336623    -0.02400
C2409       C  0.64934905  0.51147386  0.74625147     0.02600
C2410       C  0.62895980  0.52438644  0.74465838    -0.05300
C2411       C  0.60794058  0.51249094  0.74480536    -0.02400
C2412       C  0.60743687  0.48836738  0.74786108     0.02600
C2413       C  0.67013750  0.47541818  0.73650045     0.37300
C2414       C  0.58660452  0.52473849  0.74023492     0.37200
C2415       C  0.58575429  0.47727150  0.75530373     0.35700
C2416       C  0.67110683  0.52265934  0.75303003     0.35700
N2417       N  0.56824082  0.46899559  0.76198772    -0.39200
N2418       N  0.68853879  0.53123028  0.75925885    -0.39200
N2419       N  0.56937328  0.53407884  0.73598829    -0.38600
N2420       N  0.68725619  0.46613286  0.73056117    -0.38600
C2421       C  0.52308550  0.63152915  0.24417900    -0.05300
C2422       C  0.51054274  0.65017158  0.26080338    -0.02400
C2423       C  0.48647967  0.64929446  0.26272645     0.02600
C2424       C  0.47467805  0.63008877  0.24697756    -0.05300
C2425       C  0.48720875  0.61104510  0.23224654    -0.02400
C2426       C  0.51123760  0.61160231  0.23151212     0.02600
C2427       C  0.52232718  0.67028909  0.27612216     0.37300
C2428       C  0.47544830  0.59144015  0.21443523     0.37200
C2429       C  0.52350678  0.59200238  0.21490183     0.35700
C2430       C  0.47379198  0.66809112  0.28126610     0.35700
N2431       N  0.53299048  0.57620127  0.20166926    -0.39200
N2432       N  0.46361786  0.68296297  0.29636216    -0.39200
N2433       N  0.46623213  0.57583795  0.19985608    -0.38600
N2434       N  0.53163404  0.68640893  0.28829358    -0.38600
C2435       C  0.62699878  0.63106613  0.98266227    -0.05300
C2436       C  0.60752650  0.63776888  0.95886076    -0.02400
C2437       C  0.60710823  0.63543535  0.91381653     0.02600
C2438       C  0.62619889  0.62656866  0.89201230    -0.05300
C2439       C  0.64565592  0.61988597  0.91566090    -0.02400
C2440       C  0.64601923  0.62201900  0.96076538     0.02600
C2441       C  0.58797488  0.64752015  0.98056978     0.37300
C2442       C  0.66497852  0.60988784  0.89362869     0.37200
C2443       C  0.66547296  0.61369467  0.98483410     0.35700
C2444       C  0.58716966  0.64259539  0.88972045     0.35700
N2445       N  0.68087223  0.60684932  0.00414242    -0.39200
N2446       N  0.57130016  0.64823723  0.87036201    -0.39200
N2447       N  0.68031396  0.60174509  0.87606913    -0.38600
N2448       N  0.57230131  0.65542187  0.99744874    -0.38600
C2449       C  0.62226412  0.62340856  0.39190561    -0.05300
C2450       C  0.64020896  0.61295635  0.41480360    -0.02400
C2451       C  0.64110684  0.61459581  0.45987559     0.02600
C2452       C  0.62397430  0.62660093  0.48222377    -0.05300
C2453       C  0.60590788  0.63687351  0.45924233    -0.02400
C2454       C  0.60500247  0.63517365  0.41421166     0.02600
C2455       C  0.65753838  0.60023121  0.39186726     0.37300
C2456       C  0.58871167  0.64993714  0.48185636     0.37200
C2457       C  0.58656549  0.64589300  0.39057485     0.35700
C2458       C  0.65949969  0.60372186  0.48332270     0.35700
N2459       N  0.57191507  0.65431655  0.37139141    -0.39200
N2460       N  0.67418549  0.59510059  0.50209030    -0.39200
N2461       N  0.57510850  0.66053789  0.49983796    -0.38600
N2462       N  0.67123654  0.58998156  0.37342679    -0.38600
C2463       C  0.62662399  0.52556648  0.24385843    -0.05300
C2464       C  0.60596299  0.51305715  0.24313802    -0.02400
C2465       C  0.60621815  0.48890744  0.24534908     0.02600
C2466       C  0.62708171  0.47666751  0.24325363    -0.05300
C2467       C  0.64756464  0.48927950  0.24042121    -0.02400
C2468       C  0.64739940  0.51316866  0.24486666     0.02600
C2469       C  0.58422393  0.52460498  0.23897247     0.37300
C2470       C  0.66903386  0.47793792  0.23128190     0.37200
C2471       C  0.66886785  0.52461781  0.25312209     0.35700
C2472       C  0.58484143  0.47702350  0.25152942     0.35700
N2473       N  0.68611335  0.53327874  0.26061021    -0.39200
N2474       N  0.56759625  0.46798355  0.25705223    -0.39200
N2475       N  0.68620893  0.46921613  0.22327710    -0.38600
N2476       N  0.56654568  0.53312136  0.23514161    -0.38600
C2477       C  0.97611567  0.63199755  0.48033542    -0.05300
C2478       C  0.98861153  0.65261735  0.48123938    -0.02400
C2479       C  0.01271430  0.65236999  0.48262480     0.02600
C2480       C  0.02493885  0.63146400  0.48197968    -0.05300
C2481       C  0.01245490  0.61137675  0.47214321    -0.02400
C2482       C  0.98827330  0.61166264  0.47133239     0.02600
C2483       C  0.97680719  0.67434098  0.47922514     0.37300
C2484       C  0.02394126  0.59007864  0.46277359     0.37200
C2485       C  0.97632855  0.59076992  0.46093927     0.35700
C2486       C  0.02476100  0.67392141  0.48425882     0.35700
N2487       N  0.96762840  0.57381811  0.45150517    -0.39200
N2488       N  0.03413030  0.69123224  0.48560023    -0.39200
N2489       N  0.03212303  0.57273326  0.45411048    -0.38600
N2490       N  0.96788220  0.69189553  0.47694686    -0.38600
C2491       C  0.77463492  0.62567399  0.61504551    -0.05300
C2492       C  0.76530722  0.61776476  0.65366750    -0.02400
C2493       C  0.74146146  0.61751699  0.65952065     0.02600
C2494       C  0.72651153  0.62272241  0.62502826    -0.05300
C2495       C  0.73597693  0.63019872  0.58587239    -0.02400
C2496       C  0.75987168  0.63225475  0.58138512     0.02600
C2497       C  0.78013571  0.60821034  0.68622254     0.37300
C2498       C  0.72132098  0.63505492  0.54956736     0.37200
C2499       C  0.76932388  0.64097122  0.54176955     0.35700
C2500       C  0.73262354  0.61316546  0.70202798     0.35700
N2501       N  0.77677352  0.64808943  0.51023546    -0.39200
N2502       N  0.72610725  0.61016465  0.73648843    -0.39200
N2503       N  0.70982708  0.63884577  0.52027797    -0.38600
N2504       N  0.79179249  0.59988374  0.71172378    -0.38600
C2505       C  0.97426100  0.62979451  0.99049880    -0.05300
C2506       C  0.98623754  0.60973210  0.00175024    -0.02400
C2507       C  0.01029834  0.60951364  0.00256974     0.02600
C2508       C  0.02282564  0.62923585  0.99113597    -0.05300
C2509       C  0.01086712  0.64871031  0.97669437    -0.02400
C2510       C  0.98676026  0.64905874  0.97663420     0.02600
C2511       C  0.97390545  0.58970059  0.01599728     0.37300
C2512       C  0.02336916  0.66855638  0.96215404     0.37200
C2513       C  0.97492462  0.66942707  0.96245498     0.35700
C2514       C  0.02186003  0.58944762  0.01902666     0.35700
N2515       N  0.96581764  0.68583756  0.95099544    -0.39200
N2516       N  0.03069345  0.57333474  0.03253908    -0.39200
N2517       N  0.03329413  0.68439706  0.95050499    -0.38600
N2518       N  0.96411895  0.57372978  0.02740853    -0.38600
C2519       C  0.87028032  0.62696325  0.85322326    -0.05300
C2520       C  0.89119281  0.62720241  0.83086395    -0.02400
C2521       C  0.89150561  0.62956353  0.78590820     0.02600
C2522       C  0.87090103  0.63163727  0.76235877    -0.05300
C2523       C  0.85006634  0.63241000  0.78496230    -0.02400
C2524       C  0.84969284  0.62923861  0.82982895     0.02600
C2525       C  0.91260671  0.62562335  0.85412101     0.37300
C2526       C  0.82891516  0.63697052  0.76253894     0.37200
C2527       C  0.82790635  0.62705012  0.85130184     0.35700
C2528       C  0.91333075  0.63118935  0.76435878     0.35700
N2529       N  0.81031106  0.62497647  0.86747715    -0.39200
N2530       N  0.93090971  0.63265492  0.74788823    -0.39200
N2531       N  0.81199805  0.64136874  0.74535121    -0.38600
N2532       N  0.92962033  0.62425785  0.87275172    -0.38600
C2533       C  0.88105112  0.62607955  0.26287619    -0.05300
C2534       C  0.90198182  0.62610704  0.28576444    -0.02400
C2535       C  0.90217481  0.62430051  0.33089458     0.02600
C2536       C  0.88150188  0.62248664  0.35358778    -0.05300
C2537       C  0.86067490  0.62208802  0.33083121    -0.02400
C2538       C  0.86042073  0.62421488  0.28592562     0.02600
C2539       C  0.92338257  0.62930265  0.26344661     0.37300
C2540       C  0.83935055  0.61888155  0.35355970     0.37200
C2541       C  0.83872831  0.62442315  0.26367682     0.35700
C2542       C  0.92362295  0.62524461  0.35409918     0.35700
N2543       N  0.82134796  0.62501779  0.24622122    -0.39200
N2544       N  0.94068652  0.62597916  0.37268540    -0.39200
N2545       N  0.82229431  0.61620515  0.37137157    -0.38600
N2546       N  0.94067008  0.63202967  0.24647043    -0.38600
C2547       C  0.77532169  0.62265113  0.12331928    -0.05300
C2548       C  0.76557855  0.61188347  0.15890695    -0.02400
C2549       C  0.74174099  0.61239333  0.16500281     0.02600
C2550       C  0.72699548  0.62152259  0.13293861    -0.05300
C2551       C  0.73699829  0.63149741  0.09622489    -0.02400
C2552       C  0.76097082  0.63264238  0.09217591     0.02600
C2553       C  0.78008040  0.59950868  0.18859664     0.37300
C2554       C  0.72286707  0.63997634  0.06157409     0.37200
C2555       C  0.77078419  0.64387313  0.05527747     0.35700
C2556       C  0.73306574  0.60479741  0.20593071     0.35700
N2557       N  0.77809138  0.65313214  0.02568243    -0.39200
N2558       N  0.72730463  0.59901725  0.23959339    -0.39200
N2559       N  0.71197239  0.64675450  0.03340979    -0.38600
N2560       N  0.79150699  0.58917934  0.21178070    -0.38600
C2561       C  0.97432514  0.37077706  0.98883420    -0.05300
C2562       C  0.98624797  0.35175123  0.00554652    -0.02400
C2563       C  0.01031365  0.35146139  0.00612271     0.02600
C2564       C  0.02271822  0.37001984  0.98952256    -0.05300
C2565       C  0.01081913  0.38945203  0.97441958    -0.02400
C2566       C  0.98675473  0.38990593  0.97445352     0.02600
C2567       C  0.97375748  0.33227166  0.02171429     0.37300
C2568       C  0.02320752  0.40830601  0.95548621     0.37200
C2569       C  0.97484855  0.40942402  0.95654701     0.35700
C2570       C  0.02239074  0.33197997  0.02361655     0.35700
N2571       N  0.96529458  0.42493406  0.94226655    -0.39200
N2572       N  0.03213945  0.31651729  0.03759901    -0.39200
N2573       N  0.03297452  0.42330535  0.94005356    -0.38600
N2574       N  0.96380374  0.31668721  0.03443867    -0.38600
C2575       C  0.77378372  0.37820548  0.86373605    -0.05300
C2576       C  0.76175205  0.39867548  0.85658268    -0.02400
C2577       C  0.73780282  0.39922874  0.85913941     0.02600
C2578       C  0.72504454  0.37870465  0.86274096    -0.05300
C2579       C  0.73724523  0.35783070  0.86574139    -0.02400
C2580       C  0.76131306  0.35775586  0.86885947     0.02600
C2581       C  0.77399215  0.41931393  0.84532871     0.37300
C2582       C  0.72559831  0.33612197  0.86308969     0.37200
C2583       C  0.77292485  0.33659227  0.87914489     0.35700
C2584       C  0.72669618  0.42135607  0.85900157     0.35700
N2585       N  0.78178307  0.31958440  0.88787827    -0.39200
N2586       N  0.71823271  0.43917734  0.85895860    -0.39200
N2587       N  0.71710262  0.31842660  0.86008089    -0.38600
N2588       N  0.78362155  0.43572799  0.83581578    -0.38600
C2589       C  0.86820644  0.47608070  0.99060549    -0.05300
C2590       C  0.88882453  0.48855699  0.99537526    -0.02400
C2591       C  0.88867622  0.51270796  0.99830047     0.02600
C2592       C  0.86811319  0.52521864  0.99473285    -0.05300
C2593       C  0.84754749  0.51294121  0.98930296    -0.02400
C2594       C  0.84746792  0.48878619  0.98860084     0.02600
C2595       C  0.91067425  0.47705421  0.99637149     0.37300
C2596       C  0.82618199  0.52511384  0.98343021     0.37200
C2597       C  0.82558077  0.47728828  0.98673720     0.35700
C2598       C  0.90989454  0.52450884  0.00696280     0.35700
N2599       N  0.80802380  0.46837215  0.98514136    -0.39200
N2600       N  0.92691360  0.53364715  0.01424113    -0.39200
N2601       N  0.80906203  0.53459691  0.97857321    -0.38600
N2602       N  0.92858376  0.46880451  0.99712003    -0.38600
C2603       C  0.97558421  0.37365784  0.49141029    -0.05300
C2604       C  0.98845224  0.39268947  0.47816826    -0.02400
C2605       C  0.01244333  0.39193667  0.47968743     0.02600
C2606       C  0.02380354  0.37198985  0.49389158    -0.05300
C2607       C  0.01088719  0.35341828  0.50918069    -0.02400
C2608       C  0.98686976  0.35441761  0.50862772     0.02600
C2609       C  0.97716441  0.41240738  0.45960365     0.37300
C2610       C  0.02228710  0.33307005  0.52471084     0.37200
C2611       C  0.97372426  0.33559994  0.52575668     0.35700
C2612       C  0.02528776  0.41109067  0.46301127     0.35700
N2613       N  0.96321575  0.32067478  0.53964443    -0.39200
N2614       N  0.03533544  0.42643088  0.44952828    -0.39200
N2615       N  0.03136838  0.31678264  0.53685448    -0.38600
N2616       N  0.96824299  0.42809649  0.44459433    -0.38600
C2617       C  0.87634320  0.37446177  0.72367945    -0.05300
C2618       C  0.88733499  0.35688885  0.70080167    -0.02400
C2619       C  0.88944666  0.35832382  0.65585649     0.02600
C2620       C  0.88014993  0.37711227  0.63340870    -0.05300
C2621       C  0.86919655  0.39469978  0.65636613    -0.02400
C2622       C  0.86757164  0.39351908  0.70140458     0.02600
C2623       C  0.89689820  0.33756426  0.72361001     0.37300
C2624       C  0.85880964  0.41355108  0.63345412     0.37200
C2625       C  0.85660625  0.41180448  0.72494928     0.35700
C2626       C  0.90169823  0.34070538  0.63274853     0.35700
N2627       N  0.84793626  0.42636092  0.74392840    -0.39200
N2628       N  0.91164828  0.32671873  0.61448156    -0.39200
N2629       N  0.85046893  0.42847862  0.61494225    -0.38600
N2630       N  0.90452425  0.32212298  0.74171791    -0.38600
C2631       C  0.87268622  0.37333654  0.13348640    -0.05300
C2632       C  0.87955299  0.35389646  0.15700928    -0.02400
C2633       C  0.87787340  0.35363947  0.20215035     0.02600
C2634       C  0.86971110  0.37298711  0.22429288    -0.05300
C2635       C  0.86257077  0.39231661  0.20074096    -0.02400
C2636       C  0.86388148  0.39242284  0.15555246     0.02600
C2637       C  0.88916620  0.33441144  0.13480026     0.37300
C2638       C  0.85333045  0.41195204  0.22302697     0.37200
C2639       C  0.85541389  0.41188762  0.13168095     0.35700
C2640       C  0.88528977  0.33370204  0.22587394     0.35700
N2641       N  0.84855012  0.42736062  0.11262614    -0.39200
N2642       N  0.89116053  0.31776125  0.24472949    -0.39200
N2643       N  0.84590316  0.42759878  0.24076498    -0.38600
N2644       N  0.89694521  0.31894354  0.11703776    -0.38600
C2645       C  0.77348061  0.37803797  0.37272054    -0.05300
C2646       C  0.76352869  0.38060000  0.33201786    -0.02400
C2647       C  0.73960547  0.38196426  0.32793897     0.02600
C2648       C  0.72543753  0.38059180  0.36463627    -0.05300
C2649       C  0.73541831  0.37654798  0.40501039    -0.02400
C2650       C  0.75934537  0.37534784  0.40903641     0.02600
C2651       C  0.77790342  0.38193961  0.29436586     0.37300
C2652       C  0.72113536  0.37398998  0.44256586     0.37200
C2653       C  0.76938698  0.37066743  0.45056632     0.35700
C2654       C  0.72962905  0.38389033  0.28557450     0.35700
N2655       N  0.77714191  0.36665069  0.48379307    -0.39200
N2656       N  0.72185774  0.38526282  0.25161274    -0.39200
N2657       N  0.70975028  0.37184377  0.47250042    -0.38600
N2658       N  0.78930999  0.38285096  0.26423455    -0.38600
C2659       C  0.86974984  0.47807067  0.48506857    -0.05300
C2660       C  0.88791598  0.49123823  0.46877064    -0.02400
C2661       C  0.88695208  0.51542026  0.46956175     0.02600
C2662       C  0.86768875  0.52700942  0.48705370    -0.05300
C2663       C  0.84882832  0.51340079  0.50037074    -0.02400
C2664       C  0.85027935  0.48935536  0.50081254     0.02600
C2665       C  0.90739050  0.47989867  0.44950625     0.37300
C2666       C  0.82715114  0.52365208  0.51185104     0.37200
C2667       C  0.83166855  0.47607791  0.51851632     0.35700
C2668       C  0.90567361  0.52792606  0.45055467     0.35700
N2669       N  0.81693496  0.46545304  0.53278979    -0.39200
N2670       N  0.92066300  0.53750162  0.43466060    -0.39200
N2671       N  0.80964732  0.53141035  0.52077613    -0.38600
N2672       N  0.92292092  0.47094624  0.43403635    -0.38600
C2673       C  0.12506990  0.22479359  0.87423705    -0.05300
C2674       C  0.14395683  0.23784250  0.88780207    -0.02400
C2675       C  0.14300572  0.26185991  0.88648089     0.02600
C2676       C  0.12334260  0.27311669  0.87051761    -0.05300
C2677       C  0.10522564  0.26001840  0.85385857    -0.02400
C2678       C  0.10612603  0.23598156  0.85553425     0.02600
C2679       C  0.16392828  0.22669749  0.90569145     0.37300
C2680       C  0.08554900  0.27129801  0.83523286     0.37200
C2681       C  0.08764654  0.22273464  0.83737760     0.35700
C2682       C  0.16161206  0.27480332  0.90510785     0.35700
N2683       N  0.07296671  0.21222708  0.82250443    -0.39200
N2684       N  0.17650318  0.28487862  0.92030265    -0.39200
N2685       N  0.06987513  0.28034970  0.82041687    -0.38600
N2686       N  0.17992295  0.21788473  0.91978496    -0.38600
C2687       C  0.12075401  0.22447097  0.37431370    -0.05300
C2688       C  0.10220246  0.23617220  0.35539469    -0.02400
C2689       C  0.10181565  0.26026515  0.35425890     0.02600
C2690       C  0.12017759  0.27289909  0.37130118    -0.05300
C2691       C  0.13936326  0.26113168  0.38785242    -0.02400
C2692       C  0.13979340  0.23707915  0.38871157     0.02600
C2693       C  0.08368695  0.22338029  0.33626276     0.37300
C2694       C  0.15779295  0.27361591  0.40812198     0.37200
C2695       C  0.15939218  0.22543896  0.40693719     0.35700
C2696       C  0.08228670  0.27206826  0.33629549     0.35700
N2697       N  0.17511506  0.21625947  0.42128386    -0.39200
N2698       N  0.06664949  0.28146224  0.32211361    -0.39200
N2699       N  0.17245899  0.28328030  0.42494493    -0.38600
N2700       N  0.06902732  0.21321240  0.32050507    -0.38600
C2701       C  0.12789615  0.12665403  0.64686574    -0.05300
C2702       C  0.12446837  0.14694424  0.67052762    -0.02400
C2703       C  0.12688913  0.14701065  0.71553834     0.02600
C2704       C  0.13261746  0.12675651  0.73743566    -0.05300
C2705       C  0.13632469  0.10652317  0.71375928    -0.02400
C2706       C  0.13392562  0.10644608  0.66873104     0.02600
C2707       C  0.11739108  0.16763649  0.64884963     0.37300
C2708       C  0.14319720  0.08583226  0.73571493     0.37200
C2709       C  0.13823619  0.08565721  0.64486695     0.35700
C2710       C  0.12255723  0.16778548  0.73940999     0.35700
N2711       N  0.14168627  0.06905593  0.62592424    -0.39200
N2712       N  0.11909681  0.18441886  0.75823647    -0.39200
N2713       N  0.14883039  0.06934543  0.75310242    -0.38600
N2714       N  0.11157657  0.18422605  0.63204387    -0.38600
C2715       C  0.12202590  0.12196805  0.23704082    -0.05300
C2716       C  0.10337496  0.13161691  0.21484724    -0.02400
C2717       C  0.10260476  0.13105131  0.16968542     0.02600
C2718       C  0.12038122  0.12061268  0.14643917    -0.05300
C2719       C  0.13906240  0.11097546  0.16864122    -0.02400
C2720       C  0.14002349  0.11188863  0.21379938     0.02600
C2721       C  0.08562746  0.14329737  0.23862667     0.37300
C2722       C  0.15723307  0.09997407  0.14485604     0.37200
C2723       C  0.15957655  0.10260284  0.23631880     0.35700
C2724       C  0.08416925  0.14232708  0.14711001     0.35700
N2725       N  0.17526905  0.09536278  0.25425554    -0.39200
N2726       N  0.06958154  0.15160183  0.12921653    -0.39200
N2727       N  0.17160622  0.09109857  0.12573802    -0.38600
N2728       N  0.07172229  0.15275455  0.25798189    -0.38600
C2729       C  0.37884294  0.22666455  0.87857355    -0.05300
C2730       C  0.35944341  0.23883166  0.86430024    -0.02400
C2731       C  0.35922051  0.26287395  0.86537941     0.02600
C2732       C  0.37875559  0.27502148  0.87906767    -0.05300
C2733       C  0.39759512  0.26285519  0.89559083    -0.02400
C2734       C  0.39745177  0.23880142  0.89609793     0.02600
C2735       C  0.34034720  0.22685847  0.84518174     0.37300
C2736       C  0.41720381  0.27508250  0.91200391     0.37200
C2737       C  0.41649703  0.22651188  0.91478751     0.35700
C2738       C  0.33931771  0.27501727  0.84961217     0.35700
N2739       N  0.43162541  0.21672135  0.92994032    -0.39200
N2740       N  0.32338869  0.28464096  0.83722298    -0.39200
N2741       N  0.43289037  0.28477501  0.92509406    -0.38600
N2742       N  0.32505132  0.21760921  0.82955960    -0.38600
C2743       C  0.27785129  0.11807597  0.89041000    -0.05300
C2744       C  0.26551349  0.13787658  0.90322044    -0.02400
C2745       C  0.24145238  0.13747667  0.90680127     0.02600
C2746       C  0.22894588  0.11802668  0.89456347    -0.05300
C2747       C  0.24091528  0.09813618  0.88286866    -0.02400
C2748       C  0.26500673  0.09781901  0.88237502     0.02600
C2749       C  0.27683162  0.15918581  0.91252351     0.37300
C2750       C  0.22843636  0.07777049  0.87072618     0.37200
C2751       C  0.27611747  0.07610302  0.87427296     0.35700
C2752       C  0.22970769  0.15679106  0.92585105     0.35700
N2753       N  0.28462794  0.05864336  0.86772867    -0.39200
N2754       N  0.22069465  0.17214034  0.94182578    -0.39200
N2755       N  0.21874981  0.06142627  0.86090683    -0.38600
N2756       N  0.28447766  0.17684342  0.92032229    -0.38600
C2757       C  0.37569602  0.22463405  0.37914295    -0.05300
C2758       C  0.39489748  0.23632049  0.39554213    -0.02400
C2759       C  0.39559668  0.26037701  0.39523963     0.02600
C2760       C  0.37717863  0.27299729  0.37827490    -0.05300
C2761       C  0.35729915  0.26129778  0.36465685    -0.02400
C2762       C  0.35652351  0.23726302  0.36544969     0.02600
C2763       C  0.41406109  0.22354128  0.41255410     0.37300
C2764       C  0.33818204  0.27368610  0.34637540     0.37200
C2765       C  0.33655628  0.22558339  0.34896699     0.35700
C2766       C  0.41530307  0.27215891  0.41240570     0.35700
N2767       N  0.32062489  0.21633786  0.33577021    -0.39200
N2768       N  0.43098010  0.28158523  0.42621656    -0.39200
N2769       N  0.32281660  0.28320122  0.33144496    -0.38600
N2770       N  0.42932553  0.21330961  0.42610875    -0.38600
C2771       C  0.37611532  0.12820820  0.52632869    -0.05300
C2772       C  0.35597249  0.12206878  0.54812916    -0.02400
C2773       C  0.35582853  0.12059466  0.59320306     0.02600
C2774       C  0.37580780  0.12533387  0.61693044    -0.05300
C2775       C  0.39567833  0.13242143  0.59528745    -0.02400
C2776       C  0.39587005  0.13377485  0.55015457     0.02600
C2777       C  0.33548102  0.11667369  0.52409861     0.37300
C2778       C  0.41556696  0.13942968  0.61964856     0.37200
C2779       C  0.41612369  0.14184597  0.52836958     0.35700
C2780       C  0.33514127  0.11373853  0.61499272     0.35700
N2781       N  0.43225780  0.14843057  0.51112457    -0.39200
N2782       N  0.31851221  0.10825577  0.63192380    -0.39200
N2783       N  0.43127902  0.14515720  0.63931506    -0.38600
N2784       N  0.31918992  0.11251181  0.50470779    -0.38600
C2785       C  0.37908383  0.12534864  0.02634614    -0.05300
C2786       C  0.39873473  0.12857866  0.05189551    -0.02400
C2787       C  0.39756593  0.12604391  0.09684385     0.02600
C2788       C  0.37658599  0.12082025  0.11680270    -0.05300
C2789       C  0.35697419  0.11751634  0.09116072    -0.02400
C2790       C  0.35822800  0.11971275  0.04622305     0.02600
C2791       C  0.42000620  0.13538962  0.03208805     0.37300
C2792       C  0.33563356  0.11079217  0.11076214     0.37200
C2793       C  0.33818414  0.11525881  0.02022333     0.35700
C2794       C  0.41792645  0.12929578  0.12256510     0.35700
N2795       N  0.32233698  0.11170703  0.99916764    -0.39200
N2796       N  0.43420239  0.13171789  0.14303152    -0.39200
N2797       N  0.31857082  0.10524181  0.12601556    -0.38600
N2798       N  0.43692791  0.14096312  0.01630797    -0.38600
C2799       C  0.22427848  0.11722843  0.38042702    -0.05300
C2800       C  0.23672824  0.13790430  0.38066366    -0.02400
C2801       C  0.26085584  0.13780323  0.37968455     0.02600
C2802       C  0.27329510  0.11709886  0.38295483    -0.05300
C2803       C  0.26079869  0.09642206  0.38498573    -0.02400
C2804       C  0.23675716  0.09642306  0.38143862     0.02600
C2805       C  0.22507472  0.15962288  0.38450389     0.37300
C2806       C  0.27247811  0.07484088  0.39162924     0.37200
C2807       C  0.22508286  0.07464808  0.37855275     0.35700
C2808       C  0.27248597  0.15930003  0.37327397     0.35700
N2809       N  0.21599861  0.05719696  0.37637654    -0.39200
N2810       N  0.28114217  0.17671121  0.36746852    -0.39200
N2811       N  0.28166171  0.05759966  0.39696527    -0.38600
N2812       N  0.21630199  0.17716952  0.38835774    -0.38600
C2813       C  0.37775878  0.77353861  0.63311504    -0.05300
C2814       C  0.35878696  0.76064848  0.64661391    -0.02400
C2815       C  0.35854446  0.73678397  0.64125559     0.02600
C2816       C  0.37767968  0.72537965  0.62371485    -0.05300
C2817       C  0.39616711  0.73838098  0.60827442    -0.02400
C2818       C  0.39614486  0.76237557  0.61265044     0.02600
C2819       C  0.34040413  0.77161618  0.66996810     0.37300
C2820       C  0.41538096  0.72696583  0.58841247     0.37200
C2821       C  0.41521642  0.77547450  0.59655073     0.35700
C2822       C  0.33920519  0.72395353  0.65715011     0.35700
N2823       N  0.43053002  0.78570881  0.58346306    -0.39200
N2824       N  0.32367080  0.71393974  0.66990861    -0.39200
N2825       N  0.43067562  0.71773952  0.57269458    -0.38600
N2826       N  0.32590236  0.78024571  0.68913416    -0.38600
C2827       C  0.37389106  0.97704457  0.74947022    -0.05300
C2828       C  0.37823024  0.98617940  0.79043161    -0.02400
C2829       C  0.37951355  0.00996239  0.79610509     0.02600
C2830       C  0.37541794  0.02483434  0.76132528    -0.05300
C2831       C  0.37154548  0.01585598  0.72026740    -0.02400
C2832       C  0.37075939  0.99205083  0.71422686     0.02600
C2833       C  0.38004507  0.97122017  0.82727807     0.37300
C2834       C  0.36813894  0.03121374  0.68439128     0.37200
C2835       C  0.36680318  0.98321313  0.67149955     0.35700
C2836       C  0.38594037  0.01904603  0.83755554     0.35700
N2837       N  0.36353898  0.97652991  0.63719216    -0.39200
N2838       N  0.39153677  0.02590756  0.87064972    -0.39200
N2839       N  0.36556131  0.04362315  0.65600417    -0.38600
N2840       N  0.38122293  0.95932157  0.85673517    -0.38600
C2841       C  0.37615830  0.77176439  0.12987625    -0.05300
C2842       C  0.35681781  0.75930465  0.14318543    -0.02400
C2843       C  0.35648564  0.73534161  0.13947032     0.02600
C2844       C  0.37536224  0.72363163  0.12182118    -0.05300
C2845       C  0.39372237  0.73625670  0.10491069    -0.02400
C2846       C  0.39416846  0.76022437  0.10906576     0.02600
C2847       C  0.33776448  0.77089683  0.16329492     0.37300
C2848       C  0.41220616  0.72451983  0.08334961     0.37200
C2849       C  0.41312598  0.77302969  0.09170477     0.35700
C2850       C  0.33741954  0.72271723  0.15706309     0.35700
N2851       N  0.42822159  0.78321826  0.07764214    -0.39200
N2852       N  0.32222874  0.71273901  0.17129870    -0.39200
N2853       N  0.42688688  0.71516545  0.06592942    -0.38600
N2854       N  0.32245733  0.77998985  0.17922797    -0.38600
C2855       C  0.37852845  0.87401526  0.99340739    -0.05300
C2856       C  0.35905551  0.88218420  0.97160513    -0.02400
C2857       C  0.35955004  0.88538226  0.92682148     0.02600
C2858       C  0.37933175  0.87998308  0.90306070    -0.05300
C2859       C  0.39893845  0.87213785  0.92478917    -0.02400
C2860       C  0.39861072  0.86929084  0.96977538     0.02600
C2861       C  0.33859995  0.88791069  0.99539252     0.37300
C2862       C  0.41915977  0.86608489  0.90059449     0.37200
C2863       C  0.41875193  0.86063689  0.99135539     0.35700
C2864       C  0.33977687  0.89484813  0.90525886     0.35700
N2865       N  0.43493489  0.85365974  0.00807613    -0.39200
N2866       N  0.32400531  0.90261495  0.88839646    -0.39200
N2867       N  0.43522660  0.86124569  0.88114217    -0.38600
N2868       N  0.32229187  0.89240125  0.01441801    -0.38600
C2869       C  0.37092456  0.86901417  0.40351846    -0.05300
C2870       C  0.36373326  0.88882754  0.42541844    -0.02400
C2871       C  0.36223606  0.88888433  0.47055036     0.02600
C2872       C  0.36821190  0.86924999  0.49424245    -0.05300
C2873       C  0.37536846  0.84942765  0.47244703    -0.02400
C2874       C  0.37653926  0.84923733  0.42726207     0.02600
C2875       C  0.35768809  0.90914892  0.40149852     0.37300
C2876       C  0.38284349  0.82966294  0.49665343     0.37200
C2877       C  0.38471712  0.82901425  0.40538403     0.35700
C2878       C  0.35443343  0.90917233  0.49272523     0.35700
N2879       N  0.39138138  0.81286912  0.38816066    -0.39200
N2880       N  0.34815867  0.92533052  0.51041453    -0.39200
N2881       N  0.38898261  0.81399404  0.51600946    -0.38600
N2882       N  0.35297353  0.92538941  0.38241495    -0.38600
C2883       C  0.37005910  0.97187457  0.26333014    -0.05300
C2884       C  0.39090650  0.98408229  0.26607470    -0.02400
C2885       C  0.39093923  0.00815831  0.26988019     0.02600
C2886       C  0.37049996  0.02076430  0.26527140    -0.05300
C2887       C  0.34985661  0.00866941  0.25986175    -0.02400
C2888       C  0.34946084  0.98466071  0.26213084     0.02600
C2889       C  0.41260686  0.97241406  0.26268259     0.37300
C2890       C  0.32876510  0.02076693  0.25085821     0.37200
C2891       C  0.32745401  0.97346995  0.26459589     0.35700
C2892       C  0.41195512  0.01967017  0.28116965     0.35700
N2893       N  0.30966965  0.96509489  0.26697454    -0.39200
N2894       N  0.42870836  0.02859545  0.29113364    -0.39200
N2895       N  0.31180418  0.02999033  0.24314499    -0.38600
N2896       N  0.43023107  0.96375635  0.25916240    -0.38600
C2897       C  0.12125915  0.77275971  0.62266118    -0.05300
C2898       C  0.10176031  0.76128911  0.63825826    -0.02400
C2899       C  0.10110267  0.73722870  0.63911794     0.02600
C2900       C  0.11983575  0.72440504  0.62412258    -0.05300
C2901       C  0.13987659  0.73587050  0.61113034    -0.02400
C2902       C  0.14067456  0.75989615  0.61090788     0.02600
C2903       C  0.08231427  0.77421776  0.65355210     0.37300
C2904       C  0.15911953  0.72308814  0.59438675     0.37200
C2905       C  0.16109177  0.77123364  0.59576806     0.35700
C2906       C  0.08109836  0.72561750  0.65532763     0.35700
N2907       N  0.17746615  0.78013729  0.58383087    -0.39200
N2908       N  0.06519951  0.71628726  0.66834186    -0.39200
N2909       N  0.17440974  0.71297844  0.58068161    -0.38600
N2910       N  0.06676002  0.78443212  0.66586103    -0.38600
C2911       C  0.13066681  0.97674104  0.51119581    -0.05300
C2912       C  0.10966674  0.98877971  0.50861626    -0.02400
C2913       C  0.10930645  0.01282216  0.50578358     0.02600
C2914       C  0.12960566  0.02551139  0.51030343    -0.05300
C2915       C  0.15030922  0.01368316  0.51706285    -0.02400
C2916       C  0.15109465  0.98968193  0.51471932     0.02600
C2917       C  0.08802113  0.97702587  0.51093836     0.37300
C2918       C  0.17092880  0.02613559  0.52775533     0.37200
C2919       C  0.17330067  0.97867750  0.51487851     0.35700
C2920       C  0.08795211  0.02422420  0.49605596     0.35700
N2921       N  0.19111061  0.97016600  0.51492113    -0.39200
N2922       N  0.07082360  0.03295677  0.48769683    -0.39200
N2923       N  0.18740886  0.03577028  0.53698300    -0.38600
N2924       N  0.07023675  0.96868904  0.51351318    -0.38600
C2925       C  0.22543456  0.87824347  0.62980075    -0.05300
C2926       C  0.23479526  0.88964599  0.66523722    -0.02400
C2927       C  0.25855475  0.88947410  0.67201334     0.02600
C2928       C  0.27346373  0.88022143  0.64058490    -0.05300
C2929       C  0.26394306  0.87001575  0.60364753    -0.02400
C2930       C  0.24006647  0.86836385  0.59905541     0.02600
C2931       C  0.22006457  0.90254405  0.69362774     0.37300
C2932       C  0.27858870  0.86223748  0.56919397     0.37200
C2933       C  0.23060410  0.85730350  0.56152744     0.35700
C2934       C  0.26721324  0.89785687  0.71254423     0.35700
N2935       N  0.22336237  0.84841095  0.53139588    -0.39200
N2936       N  0.27362952  0.90426668  0.74543248    -0.39200
N2937       N  0.29030421  0.85626989  0.54159741    -0.38600
N2938       N  0.20845070  0.91333382  0.71567081    -0.38600
C2939       C  0.11900360  0.77261018  0.12454076    -0.05300
C2940       C  0.09946825  0.76063767  0.13853109    -0.02400
C2941       C  0.09917311  0.73658947  0.13793639     0.02600
C2942       C  0.11846596  0.72431473  0.12373765    -0.05300
C2943       C  0.13845698  0.73626355  0.11228247    -0.02400
C2944       C  0.13876428  0.76027089  0.11293821     0.02600
C2945       C  0.07952075  0.77298312  0.15325186     0.37300
C2946       C  0.15805581  0.72403013  0.09556324     0.37200
C2947       C  0.15889599  0.77215994  0.09796014     0.35700
C2948       C  0.07877641  0.72447238  0.15090844     0.35700
N2949       N  0.17498159  0.78149120  0.08580836    -0.39200
N2950       N  0.06249139  0.71477874  0.16098885    -0.39200
N2951       N  0.17358558  0.71431585  0.08181612    -0.38600
N2952       N  0.06348718  0.78253230  0.16526872    -0.38600
C2953       C  0.12416345  0.87591443  0.85877892    -0.05300
C2954       C  0.10337734  0.87232616  0.83696502    -0.02400
C2955       C  0.10305827  0.86975126  0.79195950     0.02600
C2956       C  0.12357788  0.87062665  0.76807926    -0.05300
C2957       C  0.14443931  0.87338254  0.79018253    -0.02400
C2958       C  0.14468028  0.87661008  0.83501339     0.02600
C2959       C  0.08234681  0.87019839  0.86107009     0.37300
C2960       C  0.16579984  0.87280082  0.76692387     0.37200
C2961       C  0.16609745  0.88149655  0.85637977     0.35700
C2962       C  0.08163870  0.86468326  0.77080296     0.35700
N2963       N  0.18325330  0.88561212  0.87295460    -0.39200
N2964       N  0.06439402  0.86035621  0.75476282    -0.39200
N2965       N  0.18280039  0.87180515  0.74832264    -0.38600
N2966       N  0.06566982  0.86845997  0.88051461    -0.38600
C2967       C  0.12333379  0.87322011  0.26797512    -0.05300
C2968       C  0.14358103  0.88046599  0.28829928    -0.02400
C2969       C  0.14458307  0.88216341  0.33332064     0.02600
C2970       C  0.12523908  0.87701256  0.35832838    -0.05300
C2971       C  0.10480061  0.87033108  0.33799910    -0.02400
C2972       C  0.10384357  0.86839094  0.29300687     0.02600
C2973       C  0.16305852  0.88725294  0.26274373     0.37300
C2974       C  0.08494229  0.86470316  0.36355520     0.37200
C2975       C  0.08289284  0.86089374  0.27268494     0.35700
C2976       C  0.16535075  0.88990042  0.35386264     0.35700
N2977       N  0.06610829  0.85490485  0.25680032    -0.39200
N2978       N  0.18192370  0.89614832  0.37014766    -0.39200
N2979       N  0.06918844  0.86026255  0.38414648    -0.38600
N2980       N  0.17846929  0.89278683  0.24217708    -0.38600
C2981       C  0.12503093  0.97542001  0.01033281    -0.05300
C2982       C  0.12481902  0.98979740  0.04683206    -0.02400
C2983       C  0.12525450  0.01373569  0.04213380     0.02600
C2984       C  0.12546924  0.02348576  0.00098955    -0.05300
C2985       C  0.12394410  0.00914931  0.96461716    -0.02400
C2986       C  0.12363879  0.98522839  0.96927287     0.02600
C2987       C  0.12309298  0.98004586  0.08932503     0.37300
C2988       C  0.12211080  0.01891872  0.92218848     0.37200
C2989       C  0.12205491  0.97073653  0.93173621     0.35700
C2990       C  0.12601076  0.02834746  0.07957274     0.35700
N2991       N  0.12058680  0.95921185  0.90179459    -0.39200
N2992       N  0.12664522  0.04007931  0.10933187    -0.39200
N2993       N  0.12040045  0.02624555  0.88798522    -0.38600
N2994       N  0.12140008  0.97250895  0.12337663    -0.38600
C2995       C  0.22364227  0.87767892  0.13045187    -0.05300
C2996       C  0.23536773  0.89761838  0.14284408    -0.02400
C2997       C  0.25949114  0.89806685  0.14471285     0.02600
C2998       C  0.27268901  0.87796384  0.13700073    -0.05300
C2999       C  0.26060678  0.85770107  0.12649600    -0.02400
C3000       C  0.23652750  0.85778722  0.12201949     0.02600
C3001       C  0.22256147  0.91781950  0.15495359     0.37300
C3002       C  0.27226481  0.83609416  0.12175887     0.37200
C3003       C  0.22522364  0.83728922  0.10706827     0.35700
C3004       C  0.27030536  0.91974305  0.15420216     0.35700
N3005       N  0.21667044  0.82077053  0.09485793    -0.39200
N3006       N  0.27859162  0.93714001  0.16200020    -0.39200
N3007       N  0.28025411  0.81817997  0.11809644    -0.38600
N3008       N  0.21256833  0.93397749  0.16495559    -0.38600
C3009       C  0.52548925  0.13002327  0.74730210    -0.05300
C3010       C  0.51353202  0.11044772  0.76118547    -0.02400
C3011       C  0.48956043  0.11077515  0.76401884     0.02600
C3012       C  0.47713647  0.13040517  0.75176222    -0.05300
C3013       C  0.48898107  0.14942264  0.73519095    -0.02400
C3014       C  0.51305147  0.14927794  0.73321903     0.02600
C3015       C  0.52584987  0.09059826  0.77670342     0.37300
C3016       C  0.47649275  0.16945865  0.72131442     0.37200
C3017       C  0.52505708  0.16921933  0.71773716     0.35700
C3018       C  0.47797942  0.09175985  0.78421589     0.35700
N3019       N  0.53462313  0.18517644  0.70559546    -0.39200
N3020       N  0.46882010  0.07675619  0.80088948    -0.39200
N3021       N  0.46666924  0.18555367  0.71036484    -0.38600
N3022       N  0.53553527  0.07476787  0.78932870    -0.38600
C3023       C  0.62125603  0.22575789  0.87778958    -0.05300
C3024       C  0.60171491  0.23814575  0.89050588    -0.02400
C3025       C  0.60145096  0.26219359  0.88827728     0.02600
C3026       C  0.62086647  0.27422584  0.87389340    -0.05300
C3027       C  0.64106309  0.26191162  0.86478883    -0.02400
C3028       C  0.64121525  0.23785775  0.86640454     0.02600
C3029       C  0.58177430  0.22615308  0.90599456     0.37300
C3030       C  0.66139231  0.27369890  0.85050707     0.37200
C3031       C  0.66154324  0.22573843  0.85276033     0.35700
C3032       C  0.58102903  0.27451786  0.90061153     0.35700
N3033       N  0.67788535  0.21645282  0.84150473    -0.39200
N3034       N  0.56469508  0.28429995  0.91032192    -0.39200
N3035       N  0.67775532  0.28280448  0.83909496    -0.38600
N3036       N  0.56584522  0.21672426  0.91861387    -0.38600
C3037       C  0.52241421  0.13189355  0.25239549    -0.05300
C3038       C  0.50911302  0.14987095  0.23555783    -0.02400
C3039       C  0.48500029  0.14859041  0.23623035     0.02600
C3040       C  0.47394398  0.12951828  0.25467603    -0.05300
C3041       C  0.48733760  0.11091155  0.26885334    -0.02400
C3042       C  0.51134784  0.11202797  0.26743833     0.02600
C3043       C  0.52026975  0.16958409  0.21715396     0.37300
C3044       C  0.47659938  0.09106510  0.28775650     0.37200
C3045       C  0.52459593  0.09313087  0.28435473     0.35700
C3046       C  0.47158644  0.16675611  0.21723928     0.35700
N3047       N  0.53506189  0.07801851  0.29785640    -0.39200
N3048       N  0.46092894  0.18118065  0.20173958    -0.39200
N3049       N  0.46814086  0.07520270  0.30285540    -0.38600
N3050       N  0.52920026  0.18526805  0.20233817    -0.38600
C3051       C  0.62124693  0.22843241  0.38057351    -0.05300
C3052       C  0.64142827  0.24016950  0.36917651    -0.02400
C3053       C  0.64188284  0.26420929  0.36890734     0.02600
C3054       C  0.62205580  0.27680645  0.37927182    -0.05300
C3055       C  0.60270061  0.26510034  0.39477726    -0.02400
C3056       C  0.60222598  0.24103588  0.39507472     0.02600
C3057       C  0.66117565  0.22775966  0.35356368     0.37300
C3058       C  0.58325599  0.27782949  0.41064377     0.37200
C3059       C  0.58195409  0.22922582  0.40952544     0.35700
C3060       C  0.66239173  0.27578350  0.35482372     0.35700
N3061       N  0.56578009  0.21974888  0.42086649    -0.39200
N3062       N  0.67881970  0.28487263  0.34365004    -0.39200
N3063       N  0.56778838  0.28795032  0.42358882    -0.38600
N3064       N  0.67697253  0.21815261  0.34063745    -0.38600
C3065       C  0.62390630  0.12904665  0.51823765    -0.05300
C3066       C  0.60337801  0.12772616  0.54223248    -0.02400
C3067       C  0.60401219  0.12549465  0.58723739     0.02600
C3068       C  0.62506918  0.12332188  0.60875620    -0.05300
C3069       C  0.64546954  0.12368121  0.58477538    -0.02400
C3070       C  0.64496147  0.12781167  0.54029371     0.02600
C3071       C  0.58135689  0.12970386  0.52136635     0.37300
C3072       C  0.66703267  0.11836890  0.60528212     0.37200
C3073       C  0.66629259  0.13088656  0.51764714     0.35700
C3074       C  0.58290783  0.12639310  0.61146143     0.35700
N3075       N  0.68332596  0.13393954  0.49997548    -0.39200
N3076       N  0.56605958  0.12725801  0.63061156    -0.39200
N3077       N  0.68431776  0.11360984  0.62078043    -0.38600
N3078       N  0.56348884  0.13125035  0.50591944    -0.38600
C3079       C  0.62436148  0.12783274  0.01789114    -0.05300
C3080       C  0.60521899  0.13660192  0.03992000    -0.02400
C3081       C  0.60466729  0.13648260  0.08512022     0.02600
C3082       C  0.62281799  0.12676189  0.10853809    -0.05300
C3083       C  0.64186591  0.11782626  0.08654095    -0.02400
C3084       C  0.64265888  0.11839980  0.04138204     0.02600
C3085       C  0.58621958  0.14606271  0.01598935     0.37300
C3086       C  0.66061282  0.10784961  0.11043467     0.37200
C3087       C  0.66188289  0.10839163  0.01905141     0.35700
C3088       C  0.58601372  0.14742303  0.10763314     0.35700
N3089       N  0.67715688  0.10025017  0.00130275    -0.39200
N3090       N  0.57133918  0.15641082  0.12573932    -0.39200
N3091       N  0.67558650  0.09988316  0.12941712    -0.38600
N3092       N  0.57107918  0.15347914  0.99668805    -0.38600
C3093       C  0.97551422  0.13108256  0.98601583    -0.05300
C3094       C  0.98735297  0.12783510  0.02500159    -0.02400
C3095       C  0.01148808  0.12665856  0.02516052     0.02600
C3096       C  0.02369284  0.12915534  0.98651939    -0.05300
C3097       C  0.01172756  0.13090862  0.94756157    -0.02400
C3098       C  0.98789768  0.13159277  0.94724942     0.02600
C3099       C  0.97491550  0.12606350  0.06485377     0.37300
C3100       C  0.02382425  0.13094158  0.90703998     0.37200
C3101       C  0.97631832  0.13149130  0.90620099     0.35700
C3102       C  0.02368064  0.12292629  0.06488197     0.35700
N3103       N  0.96791671  0.13111965  0.87273327    -0.39200
N3104       N  0.03328114  0.11960255  0.09664750    -0.39200
N3105       N  0.03285094  0.13086660  0.87418423    -0.38600
N3106       N  0.96528425  0.12455383  0.09701142    -0.38600
C3107       C  0.87687122  0.27362660  0.86258639    -0.05300
C3108       C  0.85695611  0.26103691  0.87207916    -0.02400
C3109       C  0.85729918  0.23699001  0.87041342     0.02600
C3110       C  0.87726289  0.22527812  0.85755857    -0.05300
C3111       C  0.89622047  0.23797006  0.84335923    -0.02400
C3112       C  0.89624236  0.26197769  0.84677372     0.02600
C3113       C  0.83651973  0.27251632  0.88693590     0.37300
C3114       C  0.91570769  0.22631388  0.82501994     0.37200
C3115       C  0.91640769  0.27465561  0.83458905     0.35700
C3116       C  0.83766372  0.22441287  0.88577455     0.35700
N3117       N  0.93255075  0.28475429  0.82515653    -0.39200
N3118       N  0.82198922  0.21458707  0.89844858    -0.39200
N3119       N  0.93119501  0.21716060  0.80982953    -0.38600
N3120       N  0.82004500  0.28131770  0.89882861    -0.38600
C3121       C  0.77471491  0.12463918  0.87394337    -0.05300
C3122       C  0.76545916  0.12019770  0.83327177    -0.02400
C3123       C  0.74167511  0.12036813  0.82735522     0.02600
C3124       C  0.72696380  0.12490735  0.86233721    -0.05300
C3125       C  0.73638267  0.13010771  0.90277335    -0.02400
C3126       C  0.76020053  0.13010965  0.90843266     0.02600
C3127       C  0.78045961  0.11482549  0.79772151     0.37300
C3128       C  0.72165171  0.13449226  0.93914680     0.37200
C3129       C  0.76965004  0.13607072  0.94977159     0.35700
C3130       C  0.73258938  0.11596727  0.78496855     0.35700
N3131       N  0.77657177  0.14114350  0.98308963    -0.39200
N3132       N  0.72589279  0.11233002  0.75080440    -0.39200
N3133       N  0.71001025  0.13802348  0.96827035    -0.38600
N3134       N  0.79243891  0.11051664  0.76945327    -0.38600
C3135       C  0.97389942  0.12945541  0.51103919    -0.05300
C3136       C  0.98594382  0.15026936  0.51447700    -0.02400
C3137       C  0.01008929  0.15062420  0.51328562     0.02600
C3138       C  0.02270520  0.13012380  0.50820723    -0.05300
C3139       C  0.01069567  0.10922861  0.51108598    -0.02400
C3140       C  0.98664003  0.10900134  0.51484824     0.02600
C3141       C  0.97356500  0.17131242  0.52198688     0.37300
C3142       C  0.02257459  0.08763972  0.50732782     0.37200
C3143       C  0.97549684  0.08762951  0.52457457     0.35700
C3144       C  0.02178074  0.17224913  0.51794477     0.35700
N3145       N  0.96737870  0.07040717  0.53402765    -0.39200
N3146       N  0.03081584  0.18962989  0.52192787    -0.39200
N3147       N  0.03156305  0.07017748  0.50391428    -0.38600
N3148       N  0.96392490  0.18813889  0.52883506    -0.38600
C3149       C  0.88072191  0.22585657  0.37405889    -0.05300
C3150       C  0.89867379  0.23825678  0.35506730    -0.02400
C3151       C  0.89778676  0.26234287  0.35344514     0.02600
C3152       C  0.87942675  0.27430438  0.37247559    -0.05300
C3153       C  0.86121874  0.26179978  0.39050161    -0.02400
C3154       C  0.86186717  0.23776567  0.39124074     0.02600
C3155       C  0.91823764  0.22627099  0.33772911     0.37300
C3156       C  0.84234962  0.27357563  0.41084324     0.37200
C3157       C  0.84392015  0.22534298  0.41303046     0.35700
C3158       C  0.91553074  0.27476714  0.33121986     0.35700
N3159       N  0.82977221  0.21534668  0.43061885    -0.39200
N3160       N  0.92959989  0.28452666  0.31294842    -0.39200
N3161       N  0.82725683  0.28285963  0.42711032    -0.38600
N3162       N  0.93394909  0.21675661  0.32420130    -0.38600
C3163       C  0.88013751  0.11834240  0.63040426    -0.05300
C3164       C  0.87538533  0.09863429  0.65459499    -0.02400
C3165       C  0.87317963  0.10003127  0.69963368     0.02600
C3166       C  0.87551950  0.12120566  0.72111893    -0.05300
C3167       C  0.88023315  0.14093694  0.69683443    -0.02400
C3168       C  0.88285708  0.13944631  0.65192113     0.02600
C3169       C  0.87176363  0.07702567  0.63307710     0.37300
C3170       C  0.88297503  0.16277541  0.71801903     0.37200
C3171       C  0.88905606  0.15965861  0.62785638     0.35700
C3172       C  0.86744248  0.07966805  0.72352619     0.35700
N3173       N  0.89415192  0.17573998  0.60873399    -0.39200
N3174       N  0.86269872  0.06323748  0.74187727    -0.39200
N3175       N  0.88509922  0.18027015  0.73464910    -0.38600
N3176       N  0.86880803  0.05973763  0.61614554    -0.38600
C3177       C  0.87445140  0.13271093  0.22254591    -0.05300
C3178       C  0.85699205  0.12104670  0.20050134    -0.02400
C3179       C  0.85751018  0.11940375  0.15537982     0.02600
C3180       C  0.87584335  0.12883040  0.13203478    -0.05300
C3181       C  0.89301905  0.14093899  0.15404100    -0.02400
C3182       C  0.89225772  0.14297126  0.19911897     0.02600
C3183       C  0.83904095  0.10985542  0.22445060     0.37300
C3184       C  0.91106468  0.15192394  0.13011615     0.37200
C3185       C  0.90950848  0.15604936  0.22153074     0.35700
C3186       C  0.83925945  0.10776952  0.13295820     0.35700
N3187       N  0.92309180  0.16658888  0.23966932    -0.39200
N3188       N  0.82463379  0.09856014  0.11512782    -0.39200
N3189       N  0.92535921  0.16079030  0.11089243    -0.38600
N3190       N  0.82486977  0.10084289  0.24377294    -0.38600
C3191       C  0.77401241  0.12457769  0.37469437    -0.05300
C3192       C  0.75898270  0.11529905  0.40573473    -0.02400
C3193       C  0.73517159  0.11581807  0.39919629     0.02600
C3194       C  0.72589082  0.12673365  0.36304603    -0.05300
C3195       C  0.74061854  0.13658370  0.33259953    -0.02400
C3196       C  0.76455253  0.13517014  0.33790764     0.02600
C3197       C  0.76768747  0.10562458  0.44522345     0.37300
C3198       C  0.73113187  0.14781258  0.29527123     0.37200
C3199       C  0.77929714  0.14347018  0.30412624     0.35700
C3200       C  0.72011441  0.10432550  0.42898986     0.35700
N3201       N  0.79094679  0.14992996  0.27686927    -0.39200
N3202       N  0.70804913  0.09491273  0.45226345    -0.39200
N3203       N  0.72371099  0.15691807  0.26550200    -0.38600
N3204       N  0.77412245  0.09796058  0.47715430    -0.38600
C3205       C  0.89116765  0.77403437  0.64452034    -0.05300
C3206       C  0.91114568  0.76133795  0.63510813    -0.02400
C3207       C  0.91032457  0.73731590  0.63196089     0.02600
C3208       C  0.88946206  0.72542982  0.63820931    -0.05300
C3209       C  0.87136200  0.73774546  0.65768893    -0.02400
C3210       C  0.87241980  0.76181970  0.66150815     0.02600
C3211       C  0.93297947  0.77263728  0.63003728     0.37300
C3212       C  0.85184480  0.72598487  0.67540193     0.37200
C3213       C  0.85484296  0.77351362  0.68559822     0.35700
C3214       C  0.93140601  0.72514524  0.62334693     0.35700
N3215       N  0.84091336  0.78215272  0.70618887    -0.39200
N3216       N  0.94844746  0.71586527  0.61662387    -0.39200
N3217       N  0.83628729  0.71700448  0.69053806    -0.38600
N3218       N  0.95064480  0.78111993  0.62623015    -0.38600
C3219       C  0.97799544  0.87063516  0.49782812    -0.05300
C3220       C  0.98980393  0.88982529  0.51390778    -0.02400
C3221       C  0.01381857  0.89037416  0.51344215     0.02600
C3222       C  0.02630889  0.87172587  0.49689537    -0.05300
C3223       C  0.01445882  0.85337082  0.47775831    -0.02400
C3224       C  0.99039840  0.85268677  0.47875724     0.02600
C3225       C  0.97742870  0.90817568  0.53471302     0.37300
C3226       C  0.02701840  0.83516867  0.45699068     0.37200
C3227       C  0.97838062  0.83326181  0.46107545     0.35700
C3228       C  0.02559016  0.90941530  0.53323503     0.35700
N3229       N  0.96870717  0.81774583  0.44724557    -0.39200
N3230       N  0.03499884  0.92455456  0.54904705    -0.39200
N3231       N  0.03697246  0.82069668  0.44012009    -0.38600
N3232       N  0.96772001  0.92279863  0.55161029    -0.38600
C3233       C  0.87224267  0.97238394  0.50093040    -0.05300
C3234       C  0.88912904  0.98658456  0.51870573    -0.02400
C3235       C  0.88879411  0.01041861  0.51135275     0.02600
C3236       C  0.87134267  0.02062359  0.48573180    -0.05300
C3237       C  0.85424295  0.00588619  0.46837190    -0.02400
C3238       C  0.85519916  0.98206428  0.47499988     0.02600
C3239       C  0.90684835  0.97665838  0.54534717     0.37300
C3240       C  0.83485078  0.01473153  0.44469613     0.37200
C3241       C  0.83906219  0.96724183  0.45337597     0.35700
C3242       C  0.90653391  0.02397794  0.53126562     0.35700
N3243       N  0.82640141  0.95548269  0.43555021    -0.39200
N3244       N  0.92080202  0.03429083  0.54795765    -0.39200
N3245       N  0.81915700  0.02134682  0.42592891    -0.38600
N3246       N  0.92108100  0.96890523  0.56650317    -0.38600
C3247       C  0.87799001  0.77562369  0.12656442    -0.05300
C3248       C  0.85858431  0.76356322  0.11197150    -0.02400
C3249       C  0.85876683  0.73950939  0.11017031     0.02600
C3250       C  0.87858187  0.72714262  0.12167578    -0.05300
C3251       C  0.89746744  0.73911955  0.13866185    -0.02400
C3252       C  0.89704341  0.76318985  0.14160751     0.02600
C3253       C  0.83898361  0.77581527  0.09519212     0.37300
C3254       C  0.91739327  0.72667088  0.15322526     0.37200
C3255       C  0.91622117  0.77520190  0.16027217     0.35700
C3256       C  0.83888538  0.72772038  0.09372364     0.35700
N3257       N  0.93143803  0.78481300  0.17539980    -0.39200
N3258       N  0.82283186  0.71860941  0.08075064    -0.39200
N3259       N  0.93330035  0.71673785  0.16481590    -0.38600
N3260       N  0.82339111  0.78545038  0.08140458    -0.38600
C3261       C  0.97360471  0.87265652  0.99853462    -0.05300
C3262       C  0.98576062  0.89215066  0.01239166    -0.02400
C3263       C  0.00982707  0.89181754  0.01422200     0.02600
C3264       C  0.02205529  0.87204521  0.00202010    -0.05300
C3265       C  0.00990375  0.85313127  0.98560866    -0.02400
C3266       C  0.98585503  0.85354989  0.98348317     0.02600
C3267       C  0.97359253  0.91208271  0.02788033     0.37300
C3268       C  0.02206866  0.83296404  0.97146845     0.37200
C3269       C  0.97365775  0.83426190  0.96566122     0.35700
C3270       C  0.02175876  0.91124277  0.03218304     0.35700
N3271       N  0.96393863  0.81893434  0.95121547    -0.39200
N3272       N  0.03106114  0.92679504  0.04673466    -0.39200
N3273       N  0.03162603  0.81675293  0.96034990    -0.38600
N3274       N  0.96402063  0.92801544  0.04033220    -0.38600
C3275       C  0.87318238  0.87174246  0.76833535    -0.05300
C3276       C  0.88470239  0.85466302  0.79165194    -0.02400
C3277       C  0.88593487  0.85592168  0.83673907     0.02600
C3278       C  0.87585834  0.87442913  0.85875367    -0.05300
C3279       C  0.86404482  0.89134613  0.83537625    -0.02400
C3280       C  0.86276328  0.89001559  0.79028568     0.02600
C3281       C  0.89576791  0.83610919  0.76902311     0.37300
C3282       C  0.85239046  0.90958044  0.85784825     0.37200
C3283       C  0.85032866  0.90717748  0.76630018     0.35700
C3284       C  0.89784557  0.83830156  0.86049949     0.35700
N3285       N  0.84037274  0.92071003  0.74683826    -0.39200
N3286       N  0.90732910  0.82424366  0.87947484    -0.39200
N3287       N  0.84297281  0.92402220  0.87585764    -0.38600
N3288       N  0.90458337  0.82140595  0.75068430    -0.38600
C3289       C  0.87729825  0.86957784  0.26740752    -0.05300
C3290       C  0.85688387  0.86841039  0.29125838    -0.02400
C3291       C  0.85730473  0.87084039  0.33616707     0.02600
C3292       C  0.87824816  0.87290677  0.35846231    -0.05300
C3293       C  0.89877644  0.87317699  0.33487093    -0.02400
C3294       C  0.89832983  0.87122869  0.28971759     0.02600
C3295       C  0.83522625  0.86460371  0.26997566     0.37300
C3296       C  0.92046250  0.87516108  0.35696916     0.37200
C3297       C  0.91969635  0.86944126  0.26661778     0.35700
C3298       C  0.83585366  0.87258524  0.35900712     0.35700
N3299       N  0.93685240  0.86768768  0.24868990    -0.39200
N3300       N  0.81857828  0.87426123  0.37652608    -0.39200
N3301       N  0.93773376  0.87694724  0.37458981    -0.38600
N3302       N  0.81796160  0.86100337  0.25339535    -0.38600
C3303       C  0.87349750  0.02570656  0.99399876    -0.05300
C3304       C  0.87052673  0.01728221  0.03593175    -0.02400
C3305       C  0.87025654  0.99349014  0.04343847     0.02600
C3306       C  0.87280731  0.97796966  0.00902663    -0.05300
C3307       C  0.87676098  0.98647254  0.96747114    -0.02400
C3308       C  0.87691080  0.01016865  0.95999926     0.02600
C3309       C  0.86709557  0.03303474  0.07111378     0.37300
C3310       C  0.88033979  0.97087764  0.93204038     0.37200
C3311       C  0.88083637  0.01853344  0.91702420     0.35700
C3312       C  0.86822301  0.98493030  0.08681513     0.35700
N3313       N  0.88405105  0.02489825  0.88255420    -0.39200
N3314       N  0.86683732  0.97793785  0.12134014    -0.39200
N3315       N  0.88341764  0.95854660  0.90371538    -0.38600
N3316       N  0.86432162  0.04557030  0.09924207    -0.38600
C3317       C  0.62289139  0.77510484  0.62308946    -0.05300
C3318       C  0.64231260  0.76291205  0.63736728    -0.02400
C3319       C  0.64254634  0.73889220  0.63655419     0.02600
C3320       C  0.62300681  0.72674394  0.62322465    -0.05300
C3321       C  0.60401524  0.73887014  0.60701337    -0.02400
C3322       C  0.60403168  0.76294946  0.60665361     0.02600
C3323       C  0.66121651  0.77484571  0.65726715     0.37300
C3324       C  0.58432735  0.72653594  0.59114661     0.37200
C3325       C  0.58442006  0.77524128  0.59020741     0.35700
C3326       C  0.66237281  0.72677770  0.65273496     0.35700
N3327       N  0.56878497  0.78509327  0.57715493    -0.39200
N3328       N  0.67824289  0.71722279  0.66555831    -0.39200
N3329       N  0.56864997  0.71662482  0.57858955    -0.38600
N3330       N  0.67622441  0.78413758  0.67376489    -0.38600
C3331       C  0.52558254  0.87168362  0.75034784    -0.05300
C3332       C  0.51308633  0.89080876  0.73561902    -0.02400
C3333       C  0.48901094  0.89065741  0.73620599     0.02600
C3334       C  0.47707930  0.87134099  0.75135671    -0.05300
C3335       C  0.48960668  0.85262710  0.76777041    -0.02400
C3336       C  0.51370281  0.85287288  0.76743893     0.02600
C3337       C  0.52484063  0.91007871  0.71674634     0.37300
C3338       C  0.47775650  0.83297310  0.78484535     0.37200
C3339       C  0.52637311  0.83372802  0.78477894     0.35700
C3340       C  0.47660305  0.90978209  0.71798774     0.35700
N3341       N  0.53662748  0.81856201  0.79863721    -0.39200
N3342       N  0.46674272  0.92499568  0.70331915    -0.39200
N3343       N  0.46839457  0.81721685  0.79838571    -0.38600
N3344       N  0.53401160  0.92548954  0.70145591    -0.38600
C3345       C  0.62891999  0.97588642  0.74561885    -0.05300
C3346       C  0.63530778  0.98504010  0.78539523    -0.02400
C3347       C  0.63319287  0.00859157  0.79290992     0.02600
C3348       C  0.62689610  0.02353965  0.75919545    -0.05300
C3349       C  0.62098349  0.01429925  0.71888443    -0.02400
C3350       C  0.62161059  0.99049981  0.71243036     0.02600
C3351       C  0.64566865  0.97048037  0.81752651     0.37300
C3352       C  0.61537866  0.02915250  0.68329003     0.37200
C3353       C  0.61550278  0.98111297  0.67104088     0.35700
C3354       C  0.63671075  0.01712978  0.83598669     0.35700
N3355       N  0.61067247  0.97384605  0.63783183    -0.39200
N3356       N  0.63919474  0.02347190  0.87074669    -0.39200
N3357       N  0.61105549  0.04075361  0.65444667    -0.38600
N3358       N  0.65462489  0.95909843  0.84270144    -0.38600
C3359       C  0.72902793  0.87382769  0.63808443    -0.05300
C3360       C  0.73766809  0.86736217  0.59757723    -0.02400
C3361       C  0.76140369  0.86600021  0.59074945     0.02600
C3362       C  0.77679556  0.87185035  0.62371845    -0.05300
C3363       C  0.76833871  0.87734391  0.66462963    -0.02400
C3364       C  0.74457961  0.87800747  0.67200655     0.02600
C3365       C  0.72228283  0.86280281  0.56221228     0.37300
C3366       C  0.78411601  0.88265732  0.69899775     0.37200
C3367       C  0.73627571  0.88217975  0.71499646     0.35700
C3368       C  0.76996589  0.85786808  0.54997896     0.35700
N3369       N  0.72985790  0.88528950  0.74951062    -0.39200
N3370       N  0.77646399  0.85096100  0.51752580    -0.39200
N3371       N  0.79670718  0.88685577  0.72641951    -0.38600
N3372       N  0.71018056  0.85910366  0.53377878    -0.38600
C3373       C  0.62312733  0.77738259  0.12783652    -0.05300
C3374       C  0.60556772  0.76489918  0.10783459    -0.02400
C3375       C  0.60620160  0.74083301  0.10778576     0.02600
C3376       C  0.62427217  0.72910543  0.12821496    -0.05300
C3377       C  0.64262211  0.74165656  0.14557267    -0.02400
C3378       C  0.64211904  0.76567913  0.14514409     0.02600
C3379       C  0.58693272  0.77688019  0.08715549     0.37300
C3380       C  0.66135219  0.73001954  0.16671197     0.37200
C3381       C  0.66057065  0.77825063  0.16517348     0.35700
C3382       C  0.58829457  0.72808186  0.08659460     0.35700
N3383       N  0.67537380  0.78811298  0.18114807    -0.39200
N3384       N  0.57411395  0.71784520  0.06949474    -0.39200
N3385       N  0.67640742  0.72102975  0.18373372    -0.38600
N3386       N  0.57216503  0.78652414  0.07049075    -0.38600
C3387       C  0.52412514  0.87074772  0.25814200    -0.05300
C3388       C  0.51260209  0.85124824  0.27362541    -0.02400
C3389       C  0.48847006  0.85045820  0.27387788     0.02600
C3390       C  0.47552766  0.86893579  0.25783330    -0.05300
C3391       C  0.48698841  0.88887659  0.24449812    -0.02400
C3392       C  0.51107081  0.88986353  0.24496169     0.02600
C3393       C  0.52556348  0.83183075  0.28898790     0.37300
C3394       C  0.47409146  0.90785925  0.22703603     0.37200
C3395       C  0.52228570  0.91005708  0.22850860     0.35700
C3396       C  0.47691074  0.83063058  0.29094063     0.35700
N3397       N  0.53110801  0.92619217  0.21526513    -0.39200
N3398       N  0.46767650  0.81488224  0.30482366    -0.39200
N3399       N  0.46383418  0.92294652  0.21289551    -0.38600
N3400       N  0.53585582  0.81628147  0.30114515    -0.38600
C3401       C  0.62433351  0.87513560  0.98522646    -0.05300
C3402       C  0.62255518  0.89573568  0.96183991    -0.02400
C3403       C  0.62075787  0.89551423  0.91676545     0.02600
C3404       C  0.62193868  0.87474809  0.89387806    -0.05300
C3405       C  0.62372104  0.85407365  0.91735413    -0.02400
C3406       C  0.62466819  0.85427933  0.96264945     0.02600
C3407       C  0.62374835  0.91750928  0.98372920     0.37300
C3408       C  0.62393989  0.83233618  0.89524458     0.37200
C3409       C  0.62526882  0.83289287  0.98597852     0.35700
C3410       C  0.61814059  0.91696077  0.89425049     0.35700
N3411       N  0.62569420  0.81580986  0.00446507    -0.39200
N3412       N  0.61563693  0.93417078  0.87684110    -0.39200
N3413       N  0.62421010  0.81486381  0.87809160    -0.38600
N3414       N  0.62492349  0.93513815  0.00013833    -0.38600
C3415       C  0.62540232  0.88056783  0.39476797    -0.05300
C3416       C  0.60615415  0.87202976  0.41643866    -0.02400
C3417       C  0.60686751  0.86876697  0.46115822     0.02600
C3418       C  0.62663431  0.87462082  0.48471513    -0.05300
C3419       C  0.64543894  0.88425402  0.46325654    -0.02400
C3420       C  0.64503842  0.88671987  0.41833278     0.02600
C3421       C  0.58574576  0.86611925  0.39259300     0.37300
C3422       C  0.66445587  0.89320730  0.48774510     0.37200
C3423       C  0.66457964  0.89630179  0.39643683     0.35700
C3424       C  0.58722420  0.85921914  0.48281659     0.35700
N3425       N  0.68015180  0.90396508  0.37895923    -0.39200
N3426       N  0.57145219  0.85158715  0.49970760    -0.39200
N3427       N  0.67933430  0.90071530  0.50755722    -0.38600
N3428       N  0.56943665  0.86154843  0.37358452    -0.38600
C3429       C  0.62244498  0.97966246  0.24532393    -0.05300
C3430       C  0.62357638  0.98832373  0.28733650    -0.02400
C3431       C  0.62415528  0.01207633  0.29427442     0.02600
C3432       C  0.62304154  0.02734744  0.25922862    -0.05300
C3433       C  0.62019271  0.01861855  0.21744748    -0.02400
C3434       C  0.62005701  0.99486255  0.21054249     0.02600
C3435       C  0.62431983  0.97278447  0.32343900     0.37300
C3436       C  0.61802082  0.03401177  0.18131712     0.37200
C3437       C  0.61680168  0.98603945  0.16763865     0.35700
C3438       C  0.62532705  0.02066984  0.33772773     0.35700
N3439       N  0.61397519  0.97915390  0.13335364    -0.39200
N3440       N  0.62615001  0.02710264  0.37269336    -0.39200
N3441       N  0.61618644  0.04622595  0.15243654    -0.38600
N3442       N  0.62466391  0.96040419  0.35225756    -0.38600
C3443       C  0.72534356  0.88139925  0.13655685    -0.05300
C3444       C  0.73380113  0.87486668  0.09599103    -0.02400
C3445       C  0.75747041  0.87372551  0.08878736     0.02600
C3446       C  0.77287956  0.87929618  0.12187029    -0.05300
C3447       C  0.76459655  0.88654469  0.16185979    -0.02400
C3448       C  0.74093525  0.88735632  0.16948028     0.02600
C3449       C  0.71822988  0.87085796  0.06062982     0.37300
C3450       C  0.78041356  0.89472534  0.19414067     0.37200
C3451       C  0.73292590  0.89452144  0.21128871     0.35700
C3452       C  0.76593341  0.86764300  0.04667471     0.35700
N3453       N  0.72706638  0.90042707  0.24486190    -0.39200
N3454       N  0.77241408  0.86294790  0.01283942    -0.39200
N3455       N  0.79294819  0.90171676  0.21955448    -0.38600
N3456       N  0.70587545  0.86787800  0.03227040    -0.38600
loop_ 
_geom_bond_atom_site_label_1 
_geom_bond_atom_site_label_2 
_geom_bond_distance 
_geom_bond_site_symmetry_2 
_ccdc_geom_bond_type 
Zr1           O2   2.443       .  S
Zr1           O3   2.461       .  S
Zr1           O4   2.448       .  S
Zr1           O7   2.452       .  S
Zr1           O9   2.383       .  S
Zr1          O10   2.387       .  S
Zr1          O11   2.415       .  S
Zr1          O12   2.399       .  S
O2           H58   0.990       .  S
O2           H66   0.990       .  S
O3           C23   1.288       .  A
O4           C25   1.286       .  A
O5          Zr15   2.421       .  S
O5           C24   1.283       .  A
O6          Zr14   2.433       .  S
O6           C25   1.285       .  A
O7           C24   1.289       .  A
O8          Zr16   2.407       .  S
O8           C23   1.278       .  A
O9          Zr14   2.401       .  S
O9          Zr16   2.380       .  S
O10         Zr15   2.397       .  S
O10         Zr16   2.380       .  S
O10          H45   0.966       .  S
O11         Zr14   2.404       .  S
O11         Zr31   2.382       .  S
O11          H48   0.964       .  S
O12         Zr15   2.382       .  S
O12         Zr31   2.379       .  S
Zr13         O38   2.444       .  S
Zr13         O32   2.457       .  S
Zr13         O40   2.456       .  S
Zr13         O28   2.461       .  S
Zr13         O19   2.410       .  S
Zr13         O20   2.416       .  S
Zr13         O21   2.380       .  S
Zr13         O22   2.391       .  S
Zr14         O33   2.436       .  S
Zr14         O26   2.435       .  S
Zr14         O27   2.441       .  S
Zr14         O20   2.398       .  S
Zr14         O21   2.398       .  S
Zr15         O17   2.434       .  S
Zr15         O39   2.441       .  S
Zr15         O41   2.417       .  S
Zr15         O19   2.391       .  S
Zr15         O22   2.400       .  S
Zr16         O42   2.429       .  S
Zr16         O43   2.434       .  S
Zr16         O18   2.437       .  S
Zr16         O19   2.393       .  S
Zr16         O20   2.381       .  S
O17          H54   0.990       .  S
O18          H49   0.990       .  S
O18          H63   0.990       .  S
O20          H46   0.964       .  S
O21         Zr31   2.383       .  S
O22         Zr31   2.385       .  S
O22          H47   0.966       .  S
C23        C3401   1.496   1_554  S
C24        C3443   1.488       .  S
C25        C3373   1.485       .  S
O26          H62   0.990       .  S
O27          C29   1.287       .  A
O28          C29   1.290       .  A
C29        C3387   1.500       .  S
O30         Zr31   2.435       .  S
O30          H59   0.991       .  S
Zr31         O34   2.436       .  S
Zr31         O35   2.438       .  S
Zr31         O36   2.395       .  S
O32          C37   1.287       .  A
O33          H50   0.990       .  S
O33          H65   0.990       .  S
O34          H51   0.990       .  S
O35          H55   0.990       .  S
O35          H64   0.990       .  S
O36          C37   1.275       .  A
C37        C3415   1.482       .  S
O38          H57   0.991       .  S
O38          H61   0.990       .  S
O39          H53   0.989       .  S
O39          H60   0.990       .  S
O40          C44   1.286       .  A
O41          C44   1.281       .  A
O42          H52   0.989       .  S
O43          H56   0.990       .  S
C44        C3429   1.482       .  S
Zr67         O68   2.441       .  S
Zr67         O69   2.467       .  S
Zr67         O70   2.452       .  S
Zr67         O73   2.454       .  S
Zr67         O75   2.386       .  S
Zr67         O76   2.386       .  S
Zr67         O77   2.422       .  S
Zr67         O78   2.404       .  S
O68         H124   0.990       .  S
O68         H132   0.990       .  S
O69          C89   1.289       .  A
O70          C91   1.287       .  A
O71         Zr81   2.433       .  S
O71          C90   1.285       .  A
O72         Zr80   2.432       .  S
O72          C91   1.284       .  A
O73          C90   1.288       .  A
O74         Zr82   2.387       .  S
O74          C89   1.274       .  A
O75         Zr80   2.400       .  S
O75         Zr82   2.387       .  S
O76         Zr81   2.394       .  S
O76         Zr82   2.383       .  S
O76         H111   0.966       .  S
O77         Zr80   2.402       .  S
O77         Zr97   2.391       .  S
O77         H114   0.964       .  S
O78         Zr81   2.377       .  S
O78         Zr97   2.382       .  S
Zr79        O104   2.443       .  S
Zr79         O98   2.457       .  S
Zr79        O106   2.458       .  S
Zr79         O94   2.453       .  S
Zr79         O85   2.403       .  S
Zr79         O86   2.410       .  S
Zr79         O87   2.386       .  S
Zr79         O88   2.391       .  S
Zr80         O99   2.437       .  S
Zr80         O92   2.434       .  S
Zr80         O93   2.438       .  S
Zr80         O86   2.395       .  S
Zr80         O87   2.399       .  S
Zr81         O83   2.435       .  S
Zr81        O105   2.437       .  S
Zr81        O107   2.409       .  S
Zr81         O85   2.391       .  S
Zr81         O88   2.406       .  S
Zr82        O108   2.434       .  S
Zr82        O109   2.434       .  S
Zr82         O84   2.438       .  S
Zr82         O85   2.380       .  S
Zr82         O86   2.373       .  S
O83         H120   0.989       .  S
O84         H115   0.990       .  S
O84         H129   0.990       .  S
O86         H112   0.964       .  S
O87         Zr97   2.386       .  S
O88         Zr97   2.380       .  S
O88         H113   0.966       .  S
C89        C3418   1.482       .  S
C90        C3359   1.495       .  S
C91        C3317   1.489       .  S
O92         H128   0.990       .  S
O93          C95   1.286       .  A
O94          C95   1.288       .  A
C95        C3331   1.492       .  S
O96         Zr97   2.435       .  S
O96         H125   0.990       .  S
Zr97        O100   2.431       .  S
Zr97        O101   2.440       .  S
Zr97        O102   2.411       .  S
O98         C103   1.288       .  A
O99         H116   0.990       .  S
O99         H131   0.990       .  S
O100        H117   0.989       .  S
O101        H121   0.990       .  S
O101        H130   0.989       .  S
O102        C103   1.279       .  A
C103       C3404   1.502       .  S
O104        H123   0.990       .  S
O104        H127   0.991       .  S
O105        H119   0.990       .  S
O105        H126   0.990       .  S
O106        C110   1.287       .  A
O107        C110   1.279       .  A
O108        H118   0.990       .  S
O109        H122   0.990       .  S
C110       C3345   1.475       .  S
Zr133       O134   2.441   1_554  S
Zr133       O135   2.465   1_554  S
Zr133       O136   2.451   1_554  S
Zr133       O139   2.455       .  S
Zr133       O141   2.385   1_554  S
Zr133       O142   2.382   1_554  S
Zr133       O143   2.423       .  S
Zr133       O144   2.403       .  S
O134        H190   0.990       .  S
O134        H198   0.990       .  S
O135        C155   1.288       .  A
O136        C157   1.286   1_556  A
O137       Zr147   2.427       .  S
O137        C156   1.284       .  A
O138       Zr146   2.434       .  S
O138        C157   1.285       .  A
O139        C156   1.288       .  A
O140       Zr148   2.398       .  S
O140        C155   1.275       .  A
O141       Zr146   2.401   1_556  S
O141       Zr148   2.385       .  S
O142       Zr147   2.394   1_556  S
O142       Zr148   2.380       .  S
O142        H177   0.966       .  S
O143       Zr146   2.404       .  S
O143       Zr163   2.389       .  S
O143        H180   0.964       .  S
O144       Zr147   2.375       .  S
O144       Zr163   2.388       .  S
Zr145       O170   2.441       .  S
Zr145       O164   2.452       .  S
Zr145       O172   2.456       .  S
Zr145       O160   2.454       .  S
Zr145       O151   2.403       .  S
Zr145       O152   2.414       .  S
Zr145       O153   2.378       .  S
Zr145       O154   2.387       .  S
Zr146       O165   2.439       .  S
Zr146       O158   2.434       .  S
Zr146       O159   2.439       .  S
Zr146       O152   2.403       .  S
Zr146       O153   2.397       .  S
Zr147       O149   2.435       .  S
Zr147       O171   2.438       .  S
Zr147       O173   2.404       .  S
Zr147       O151   2.390       .  S
Zr147       O154   2.400       .  S
Zr148       O174   2.435       .  S
Zr148       O175   2.436   1_556  S
Zr148       O150   2.438       .  S
Zr148       O151   2.383   1_556  S
Zr148       O152   2.382   1_556  S
O149        H186   0.990       .  S
O150        H181   0.990       .  S
O150        H195   0.990       .  S
O152        H178   0.964       .  S
O153       Zr163   2.380       .  S
O154       Zr163   2.380       .  S
O154        H179   0.966       .  S
C155       C3278   1.485       .  S
C156       C3306   1.490       .  S
C157       C3261   1.491   1_554  S
O158        H194   0.990       .  S
O159        C161   1.286       .  A
O160        C161   1.288       .  A
C161       C3247   1.495       .  S
O162       Zr163   2.437       .  S
O162        H191   0.990       .  S
Zr163       O166   2.433       .  S
Zr163       O167   2.442       .  S
Zr163       O168   2.408       .  S
O164        C169   1.287       .  A
O165        H182   0.990       .  S
O165        H197   0.990       .  S
O166        H183   0.990       .  S
O167        H187   0.990       .  S
O167        H196   0.990       .  S
O168        C169   1.278       .  A
C169       C3289   1.497       .  S
O170        H189   0.989       .  S
O170        H193   0.990       .  S
O171        H185   0.990       .  S
O171        H192   0.990       .  S
O172        C176   1.288       .  A
O173        C176   1.279       .  A
O174        H184   0.990       .  S
O175        H188   0.990       .  S
C176       C3446   1.474       .  S
Zr199       O200   2.443       .  S
Zr199       O201   2.462       .  S
Zr199       O202   2.445       .  S
Zr199       O205   2.443       .  S
Zr199       O207   2.382       .  S
Zr199       O208   2.385       .  S
Zr199       O209   2.416       .  S
Zr199       O210   2.405       .  S
O200        H256   0.990       .  S
O200        H264   0.990       .  S
O201        C221   1.288       .  A
O202        C223   1.285       .  A
O203       Zr213   2.441       .  S
O203        C222   1.286       .  A
O204       Zr212   2.430       .  S
O204        C223   1.283       .  A
O205        C222   1.285       .  A
O206       Zr214   2.402       .  S
O206        C221   1.278       .  A
O207       Zr212   2.400       .  S
O207       Zr214   2.380       .  S
O208       Zr213   2.396       .  S
O208       Zr214   2.386       .  S
O208        H243   0.966       .  S
O209       Zr212   2.401       .  S
O209       Zr229   2.390       .  S
O209        H246   0.964       .  S
O210       Zr213   2.388       .  S
O210       Zr229   2.398       .  S
Zr211       O236   2.437       .  S
Zr211       O230   2.447       .  S
Zr211       O238   2.458       .  S
Zr211       O226   2.462       .  S
Zr211       O217   2.403       .  S
Zr211       O218   2.408       .  S
Zr211       O219   2.382       .  S
Zr211       O220   2.389       .  S
Zr212       O231   2.436       .  S
Zr212       O224   2.436       .  S
Zr212       O225   2.431       .  S
Zr212       O218   2.397       .  S
Zr212       O219   2.396       .  S
Zr213       O215   2.436       .  S
Zr213       O237   2.437       .  S
Zr213       O239   2.419       .  S
Zr213       O217   2.395       .  S
Zr213       O220   2.400       .  S
Zr214       O240   2.432       .  S
Zr214       O241   2.435       .  S
Zr214       O216   2.437       .  S
Zr214       O217   2.387       .  S
Zr214       O218   2.384       .  S
O215        H252   0.990       .  S
O216        H247   0.990       .  S
O216        H261   0.990       .  S
O218        H244   0.965       .  S
O219       Zr229   2.373       .  S
O220       Zr229   2.379       .  S
O220        H245   0.966       .  S
C221       C3292   1.495       .  S
C222       C3233   1.491       .  S
C223       C3219   1.486       .  S
O224        H260   0.990       .  S
O225        C227   1.285       .  A
O226        C227   1.290       .  A
C227       C3205   1.516       .  S
O228       Zr229   2.432       .  S
O228        H257   0.989       .  S
Zr229       O232   2.436       .  S
Zr229       O233   2.436       .  S
Zr229       O234   2.414       .  S
O230        C235   1.286       .  A
O231        H248   0.990       .  S
O231        H263   0.990       .  S
O232        H249   0.990       .  S
O233        H253   0.990       .  S
O233        H262   0.990       .  S
O234        C235   1.279       .  A
C235       C3275   1.482       .  S
O236        H255   0.990       .  S
O236        H259   0.990       .  S
O237        H251   0.990       .  S
O237        H258   0.989       .  S
O238        C242   1.287       .  A
O239        C242   1.282       .  A
O240        H250   0.990       .  S
O241        H254   0.990       .  S
C242       C3362   1.484       .  S
Zr265       O266   2.441       .  S
Zr265       O267   2.456       .  S
Zr265       O268   2.459       .  S
Zr265       O271   2.465       .  S
Zr265       O273   2.386       .  S
Zr265       O274   2.391       .  S
Zr265       O275   2.419       .  S
Zr265       O276   2.398       .  S
O266        H322   0.990       .  S
O266        H330   0.990       .  S
O267        C287   1.286       .  A
O268        C289   1.288       .  A
O269       Zr279   2.437       .  S
O269        C288   1.286       .  A
O270       Zr278   2.425       .  S
O270        C289   1.283       .  A
O271        C288   1.291       .  A
O272       Zr280   2.410       .  S
O272        C287   1.278       .  A
O273       Zr278   2.401       .  S
O273       Zr280   2.379       .  S
O274       Zr279   2.397       .  S
O274       Zr280   2.382       .  S
O274        H309   0.965       .  S
O275       Zr278   2.405       .  S
O275       Zr295   2.393       .  S
O275        H312   0.964       .  S
O276       Zr279   2.383       .  S
O276       Zr295   2.374       .  S
Zr277       O302   2.439       .  S
Zr277       O296   2.472       .  S
Zr277       O304   2.456       .  S
Zr277       O292   2.460       .  S
Zr277       O283   2.411       .  S
Zr277       O284   2.412       .  S
Zr277       O285   2.382       .  S
Zr277       O286   2.385       .  S
Zr278       O297   2.434       .  S
Zr278       O290   2.436       .  S
Zr278       O291   2.450       .  S
Zr278       O284   2.388       .  S
Zr278       O285   2.385       .  S
Zr279       O281   2.435       .  S
Zr279       O303   2.439       .  S
Zr279       O305   2.437       .  S
Zr279       O283   2.380       .  S
Zr279       O286   2.394       .  S
Zr280       O306   2.439       .  S
Zr280       O307   2.435       .  S
Zr280       O282   2.436       .  S
Zr280       O283   2.394       .  S
Zr280       O284   2.392       .  S
O281        H318   0.989       .  S
O282        H313   0.990       .  S
O282        H327   0.990       .  S
O284        H310   0.965       .  S
O285       Zr295   2.381       .  S
O286       Zr295   2.377       .  S
O286        H311   0.965       .  S
C287       C3177   1.485       .  S
C288       C3191   1.501       .  S
C289       C3149   1.489       .  S
O290        H326   0.990       .  S
O291        C293   1.289       .  A
O292        C293   1.290       .  A
C293       C3135   1.514       .  S
O294       Zr295   2.439       .  S
O294        H323   0.990       .  S
Zr295       O298   2.438       .  S
Zr295       O299   2.444       .  S
Zr295       O300   2.404       .  S
O296        C301   1.293       .  A
O297        H314   0.990       .  S
O297        H329   0.990       .  S
O298        H315   0.990       .  S
O299        H319   0.990       .  S
O299        H328   0.990       .  S
O300        C301   1.279       .  A
C301       C3163   1.494       .  S
O302        H321   0.990       .  S
O302        H325   0.990       .  S
O303        H317   0.990       .  S
O303        H324   0.989       .  S
O304        C308   1.289       .  A
O305        C308   1.285       .  A
O306        H316   0.990       .  S
O307        H320   0.990       .  S
C308       C3236   1.524       .  S
Zr331       O332   2.443   1_556  S
Zr331       O333   2.467   1_556  S
Zr331       O334   2.460       .  S
Zr331       O337   2.463       .  S
Zr331       O339   2.389       .  S
Zr331       O340   2.385       .  S
Zr331       O341   2.426       .  S
Zr331       O342   2.413       .  S
O332        H388   0.990       .  S
O332        H396   0.991       .  S
O333        C353   1.289       .  A
O334        C355   1.287       .  A
O335       Zr345   2.421       .  S
O335        C354   1.282       .  A
O336       Zr344   2.428       .  S
O336        C355   1.285       .  A
O337        C354   1.289       .  A
O338       Zr346   2.405   1_554  S
O338        C353   1.277       .  A
O339       Zr344   2.402       .  S
O339       Zr346   2.377       .  S
O340       Zr345   2.397       .  S
O340       Zr346   2.381       .  S
O340        H375   0.966   1_556  S
O341       Zr344   2.407       .  S
O341       Zr361   2.378       .  S
O341        H378   0.962       .  S
O342       Zr345   2.386       .  S
O342       Zr361   2.391       .  S
Zr343       O368   2.442       .  S
Zr343       O362   2.472       .  S
Zr343       O370   2.442       .  S
Zr343       O358   2.456       .  S
Zr343       O349   2.406       .  S
Zr343       O350   2.422       .  S
Zr343       O351   2.380       .  S
Zr343       O352   2.391       .  S
Zr344       O363   2.437       .  S
Zr344       O356   2.436       .  S
Zr344       O357   2.431       .  S
Zr344       O350   2.395       .  S
Zr344       O351   2.400       .  S
Zr345       O347   2.435       .  S
Zr345       O369   2.437       .  S
Zr345       O371   2.422       .  S
Zr345       O349   2.376       .  S
Zr345       O352   2.398       .  S
Zr346       O372   2.433   1_556  S
Zr346       O373   2.433       .  S
Zr346       O348   2.436   1_556  S
Zr346       O349   2.384       .  S
Zr346       O350   2.389       .  S
O347        H384   0.989       .  S
O348        H379   0.990       .  S
O348        H393   0.990       .  S
O350        H376   0.964       .  S
O351       Zr361   2.384       .  S
O352       Zr361   2.382       .  S
O352        H377   0.966       .  S
C353       C3180   1.487       .  S
C354       C3303   1.489       .  S
C355       C3093   1.483       .  S
O356        H392   0.990   1_556  S
O357        C359   1.284       .  A
O358        C359   1.287       .  A
C359       C3110   1.491       .  S
O360       Zr361   2.437       .  S
O360        H389   0.990       .  S
Zr361       O364   2.432       .  S
Zr361       O365   2.429       .  S
Zr361       O366   2.404       .  S
O362        C367   1.289       .  A
O363        H380   0.989       .  S
O363        H395   0.989       .  S
O364        H381   0.990       .  S
O365        H385   0.990       .  S
O365        H394   0.988       .  S
O366        C367   1.277       .  A
C367       C3166   1.496       .  S
O368        H387   0.990       .  S
O368        H391   0.990       .  S
O369        H383   0.990       .  S
O369        H390   0.990   1_556  S
O370        C374   1.285       .  A
O371        C374   1.282       .  A
O372        H382   0.990       .  S
O373        H386   0.990       .  S
C374       C3121   1.473       .  S
Zr397       O398   2.442       .  S
Zr397       O399   2.464       .  S
Zr397       O400   2.447       .  S
Zr397       O403   2.473       .  S
Zr397       O405   2.389       .  S
Zr397       O406   2.382       .  S
Zr397       O407   2.425       .  S
Zr397       O408   2.400       .  S
O398        H454   0.990       .  S
O398        H462   0.989       .  S
O399        C419   1.289       .  A
O400        C421   1.286       .  A
O401       Zr411   2.418       .  S
O401        C420   1.282       .  A
O402       Zr410   2.440       .  S
O402        C421   1.287       .  A
O403        C420   1.291       .  A
O404       Zr412   2.395       .  S
O404        C419   1.276       .  A
O405       Zr410   2.400       .  S
O405       Zr412   2.383       .  S
O406       Zr411   2.396       .  S
O406       Zr412   2.379       .  S
O406        H441   0.966       .  S
O407       Zr410   2.411       .  S
O407       Zr427   2.384       .  S
O407        H444   0.964       .  S
O408       Zr411   2.384       .  S
O408       Zr427   2.386       .  S
Zr409       O434   2.442       .  S
Zr409       O428   2.458       .  S
Zr409       O436   2.461       .  S
Zr409       O424   2.445       .  S
Zr409       O415   2.401       .  S
Zr409       O416   2.418       .  S
Zr409       O417   2.383       .  S
Zr409       O418   2.387       .  S
Zr410       O429   2.436       .  S
Zr410       O422   2.438       .  S
Zr410       O423   2.452       .  S
Zr410       O416   2.397       .  S
Zr410       O417   2.402       .  S
Zr411       O413   2.435       .  S
Zr411       O435   2.437       .  S
Zr411       O437   2.419       .  S
Zr411       O415   2.388       .  S
Zr411       O418   2.400       .  S
Zr412       O438   2.433       .  S
Zr412       O439   2.435       .  S
Zr412       O414   2.434       .  S
Zr412       O415   2.380       .  S
Zr412       O416   2.382       .  S
O413        H450   0.990       .  S
O414        H445   0.990       .  S
O414        H459   0.990       .  S
O416        H442   0.964       .  S
O417       Zr427   2.383       .  S
O418       Zr427   2.382       .  S
O418        H443   0.966       .  S
C419       C3065   1.498       .  S
C420       C3194   1.485       .  S
C421       C3051   1.491       .  S
O422        H458   0.990       .  S
O423        C425   1.288       .  A
O424        C425   1.287       .  A
C425       C3037   1.494       .  S
O426       Zr427   2.439       .  S
O426        H455   0.990       .  S
Zr427       O430   2.438       .  S
Zr427       O431   2.439       .  S
Zr427       O432   2.405       .  S
O428        C433   1.286       .  A
O429        H446   0.990       .  S
O429        H461   0.990       .  S
O430        H447   0.990       .  S
O431        H451   0.990       .  S
O431        H460   0.990       .  S
O432        C433   1.277       .  A
C433       C3082   1.483       .  S
O434        H453   0.990       .  S
O434        H457   0.990       .  S
O435        H449   0.989       .  S
O435        H456   0.990       .  S
O436        C440   1.288       .  A
O437        C440   1.283       .  A
O438        H448   0.990       .  S
O439        H452   0.990       .  S
C440       C3432   1.486       .  S
Zr463       O464   2.441       .  S
Zr463       O465   2.458       .  S
Zr463       O466   2.460       .  S
Zr463       O469   2.458       .  S
Zr463       O471   2.383       .  S
Zr463       O472   2.386       .  S
Zr463       O473   2.418       .  S
Zr463       O474   2.398       .  S
O464        H520   0.990       .  S
O464        H528   0.989       .  S
O465        C485   1.287       .  A
O466        C487   1.288       .  A
O467       Zr477   2.407       .  S
O467        C486   1.280       .  A
O468       Zr476   2.433       .  S
O468        C487   1.285       .  A
O469        C486   1.289       .  A
O470       Zr478   2.404       .  S
O470        C485   1.277       .  A
O471       Zr476   2.397       .  S
O471       Zr478   2.386       .  S
O472       Zr477   2.396       .  S
O472       Zr478   2.379       .  S
O472        H507   0.966       .  S
O473       Zr476   2.401       .  S
O473       Zr493   2.384       .  S
O473        H510   0.964       .  S
O474       Zr477   2.380       .  S
O474       Zr493   2.380       .  S
Zr475       O500   2.441       .  S
Zr475       O494   2.452       .  S
Zr475       O502   2.463       .  S
Zr475       O490   2.448       .  S
Zr475       O481   2.400       .  S
Zr475       O482   2.416       .  S
Zr475       O483   2.384       .  S
Zr475       O484   2.387       .  S
Zr476       O495   2.436       .  S
Zr476       O488   2.435       .  S
Zr476       O489   2.429       .  S
Zr476       O482   2.400       .  S
Zr476       O483   2.399       .  S
Zr477       O479   2.434       .  S
Zr477       O501   2.439       .  S
Zr477       O503   2.409       .  S
Zr477       O481   2.386       .  S
Zr477       O484   2.397       .  S
Zr478       O504   2.438       .  S
Zr478       O505   2.436       .  S
Zr478       O480   2.437       .  S
Zr478       O481   2.387       .  S
Zr478       O482   2.386       .  S
O479        H516   0.990       .  S
O480        H511   0.990       .  S
O480        H525   0.990       .  S
O482        H508   0.964       .  S
O483       Zr493   2.380       .  S
O484       Zr493   2.385       .  S
O484        H509   0.966       .  S
C485       C3079   1.485   1_556  S
C486       C3124   1.483       .  S
C487       C3023   1.494       .  S
O488        H524   0.990       .  S
O489        C491   1.285       .  A
O490        C491   1.287       .  A
C491       C3009   1.489       .  S
O492       Zr493   2.436       .  S
O492        H521   0.991       .  S
Zr493       O496   2.436       .  S
Zr493       O497   2.434       .  S
Zr493       O498   2.405       .  S
O494        C499   1.286       .  A
O495        H512   0.990       .  S
O495        H527   0.990       .  S
O496        H513   0.990       .  S
O497        H517   0.990       .  S
O497        H526   0.989       .  S
O498        C499   1.278       .  A
C499       C3068   1.489       .  S
O500        H519   0.989       .  S
O500        H523   0.990       .  S
O501        H515   0.990       .  S
O501        H522   0.990       .  S
O502        C506   1.289       .  A
O503        C506   1.281       .  A
O504        H514   0.990       .  S
O505        H518   0.990       .  S
C506       C3348   1.489       .  S
Zr529       O530   2.440       .  S
Zr529       O531   2.457       .  S
Zr529       O532   2.477       .  S
Zr529       O535   2.450       .  S
Zr529       O537   2.380       .  S
Zr529       O538   2.390       .  S
Zr529       O539   2.416       .  S
Zr529       O540   2.411       .  S
O530        H586   0.990       .  S
O530        H594   0.989       .  S
O531        C551   1.287       .  A
O532        C553   1.292       .  A
O533       Zr543   2.416       .  S
O533        C552   1.282       .  A
O534       Zr542   2.437       .  S
O534        C553   1.285       .  A
O535        C552   1.288       .  A
O536       Zr544   2.393       .  S
O536        C551   1.275       .  A
O537       Zr542   2.402       .  S
O537       Zr544   2.390       .  S
O538       Zr543   2.395       .  S
O538       Zr544   2.369       .  S
O538        H573   0.966       .  S
O539       Zr542   2.401       .  S
O539       Zr559   2.385   1_554  S
O539        H576   0.963       .  S
O540       Zr543   2.393       .  S
O540       Zr559   2.387   1_554  S
Zr541       O566   2.442   1_554  S
Zr541       O560   2.466   1_554  S
Zr541       O568   2.457   1_554  S
Zr541       O556   2.467       .  S
Zr541       O547   2.409       .  S
Zr541       O548   2.418       .  S
Zr541       O549   2.386       .  S
Zr541       O550   2.387   1_554  S
Zr542       O561   2.437       .  S
Zr542       O554   2.434       .  S
Zr542       O555   2.430       .  S
Zr542       O548   2.403       .  S
Zr542       O549   2.401       .  S
Zr543       O545   2.435       .  S
Zr543       O567   2.438       .  S
Zr543       O569   2.428       .  S
Zr543       O547   2.385       .  S
Zr543       O550   2.395   1_554  S
Zr544       O570   2.434       .  S
Zr544       O571   2.436       .  S
Zr544       O546   2.435       .  S
Zr544       O547   2.382       .  S
Zr544       O548   2.376       .  S
O545        H582   0.990       .  S
O546        H577   0.990       .  S
O546        H591   0.990       .  S
O548        H574   0.962       .  S
O549       Zr559   2.391   1_554  S
O550       Zr559   2.377       .  S
O550        H575   0.966       .  S
C551       C2967   1.484       .  S
C552       C2939   1.487       .  S
C553       C2995   1.506       .  S
O554        H590   0.990       .  S
O555        C557   1.284       .  A
O556        C557   1.290       .  A
C557       C2981   1.488       .  S
O558       Zr559   2.437   1_554  S
O558        H587   0.990       .  S
Zr559       O562   2.433       .  S
Zr559       O563   2.443       .  S
Zr559       O564   2.399       .  S
O560        C565   1.289       .  A
O561        H578   0.990       .  S
O561        H593   0.990       .  S
O562        H579   0.989       .  S
O563        H583   0.990       .  S
O563        H592   0.990       .  S
O564        C565   1.277       .  A
C565       C2953   1.492       .  S
O566        H585   0.990       .  S
O566        H589   0.990       .  S
O567        H581   0.989       .  S
O567        H588   0.990       .  S
O568        C572   1.289   1_556  A
O569        C572   1.284       .  A
O570        H580   0.990       .  S
O571        H584   0.990       .  S
C572       C3264   1.494       .  S
Zr595       O596   2.440       .  S
Zr595       O597   2.444       .  S
Zr595       O598   2.485       .  S
Zr595       O601   2.447       .  S
Zr595       O603   2.384       .  S
Zr595       O604   2.391       .  S
Zr595       O605   2.412       .  S
Zr595       O606   2.409       .  S
O596        H652   0.990       .  S
O596        H660   0.988       .  S
O597        C617   1.284       .  A
O598        C619   1.293       .  A
O599       Zr609   2.421       .  S
O599        C618   1.283       .  A
O600       Zr608   2.413       .  S
O600        C619   1.281       .  A
O601        C618   1.287       .  A
O602       Zr610   2.410       .  S
O602        C617   1.278       .  A
O603       Zr608   2.399       .  S
O603       Zr610   2.390       .  S
O604       Zr609   2.395       .  S
O604       Zr610   2.371       .  S
O604        H639   0.966       .  S
O605       Zr608   2.400       .  S
O605       Zr625   2.377       .  S
O605        H642   0.963       .  S
O606       Zr609   2.390       .  S
O606       Zr625   2.388       .  S
Zr607       O632   2.442       .  S
Zr607       O626   2.466       .  S
Zr607       O634   2.446       .  S
Zr607       O622   2.473       .  S
Zr607       O613   2.412       .  S
Zr607       O614   2.416       .  S
Zr607       O615   2.377       .  S
Zr607       O616   2.387       .  S
Zr608       O627   2.436       .  S
Zr608       O620   2.437       .  S
Zr608       O621   2.410       .  S
Zr608       O614   2.397       .  S
Zr608       O615   2.399       .  S
Zr609       O611   2.434       .  S
Zr609       O633   2.438       .  S
Zr609       O635   2.422       .  S
Zr609       O613   2.389       .  S
Zr609       O616   2.394       .  S
Zr610       O636   2.436       .  S
Zr610       O637   2.435       .  S
Zr610       O612   2.437       .  S
Zr610       O613   2.394       .  S
Zr610       O614   2.384       .  S
O611        H648   0.990       .  S
O612        H643   0.990       .  S
O612        H657   0.990       .  S
O614        H640   0.962       .  S
O615       Zr625   2.389       .  S
O616       Zr625   2.377       .  S
O616        H641   0.966       .  S
C617       C2970   1.483       .  S
C618       C3222   1.489       .  S
C619       C2911   1.508       .  S
O620        H656   0.990       .  S
O621        C623   1.279       .  A
O622        C623   1.290       .  A
C623       C2925   1.479       .  S
O624       Zr625   2.439       .  S
O624        H653   0.990       .  S
Zr625       O628   2.437       .  S
Zr625       O629   2.437       .  S
Zr625       O630   2.404       .  S
O626        C631   1.289       .  A
O627        H644   0.990       .  S
O627        H659   0.990       .  S
O628        H645   0.990       .  S
O629        H649   0.990       .  S
O629        H658   0.989       .  S
O630        C631   1.278       .  A
C631       C2956   1.497       .  S
O632        H651   0.990       .  S
O632        H655   0.990       .  S
O633        H647   0.990       .  S
O633        H654   0.990       .  S
O634        C638   1.287       .  A
O635        C638   1.283       .  A
O636        H646   0.990       .  S
O637        H650   0.990       .  S
C638       C2897   1.491       .  S
Zr661       O662   2.439       .  S
Zr661       O663   2.461       .  S
Zr661       O664   2.489       .  S
Zr661       O667   2.461       .  S
Zr661       O669   2.379       .  S
Zr661       O670   2.396       .  S
Zr661       O671   2.414       .  S
Zr661       O672   2.409       .  S
O662        H718   0.990       .  S
O662        H726   0.988       .  S
O663        C683   1.287       .  A
O664        C685   1.294       .  A
O665       Zr675   2.437       .  S
O665        C684   1.286       .  A
O666       Zr674   2.417       .  S
O666        C685   1.283       .  A
O667        C684   1.290       .  A
O668       Zr676   2.406       .  S
O668        C683   1.277       .  A
O669       Zr674   2.402       .  S
O669       Zr676   2.389       .  S
O670       Zr675   2.403       .  S
O670       Zr676   2.376       .  S
O670        H705   0.966       .  S
O671       Zr674   2.398       .  S
O671       Zr691   2.384       .  S
O671        H708   0.963       .  S
O672       Zr675   2.390       .  S
O672       Zr691   2.386       .  S
Zr673       O698   2.439       .  S
Zr673       O692   2.469       .  S
Zr673       O700   2.444       .  S
Zr673       O688   2.506       .  S
Zr673       O679   2.418       .  S
Zr673       O680   2.411       .  S
Zr673       O681   2.375       .  S
Zr673       O682   2.397       .  S
Zr674       O693   2.437       .  S
Zr674       O686   2.430       .  S
Zr674       O687   2.418       .  S
Zr674       O680   2.400       .  S
Zr674       O681   2.391       .  S
Zr675       O677   2.436       .  S
Zr675       O699   2.437       .  S
Zr675       O701   2.437       .  S
Zr675       O679   2.394       .  S
Zr675       O682   2.398       .  S
Zr676       O702   2.435       .  S
Zr676       O703   2.438       .  S
Zr676       O678   2.438       .  S
Zr676       O679   2.392       .  S
Zr676       O680   2.379       .  S
O677        H714   0.990       .  S
O678        H709   0.990       .  S
O678        H723   0.990       .  S
O680        H706   0.962       .  S
O681       Zr691   2.389       .  S
O682       Zr691   2.376       .  S
O682        H707   0.966       .  S
C683       C2869   1.490       .  S
C684       C3390   1.497       .  S
C685       C2883   1.510       .  S
O686        H722   0.989       .  S
O687        C689   1.282       .  A
O688        C689   1.297       .  A
C689       C2998   1.524       .  S
O690       Zr691   2.438       .  S
O690        H719   0.990       .  S
Zr691       O694   2.437       .  S
Zr691       O695   2.437       .  S
Zr691       O696   2.402       .  S
O692        C697   1.290       .  A
O693        H710   0.990       .  S
O693        H725   0.990       .  S
O694        H711   0.990       .  S
O695        H715   0.989       .  S
O695        H724   0.990       .  S
O696        C697   1.277       .  A
C697       C2855   1.492   1_554  S
O698        H717   0.988       .  S
O698        H721   0.990       .  S
O699        H713   0.990       .  S
O699        H720   0.990       .  S
O700        C704   1.285       .  A
O701        C704   1.285       .  A
O702        H712   0.990       .  S
O703        H716   0.990       .  S
C704       C2841   1.489       .  S
Zr727       O728   2.442       .  S
Zr727       O729   2.470       .  S
Zr727       O730   2.476       .  S
Zr727       O733   2.451       .  S
Zr727       O735   2.379       .  S
Zr727       O736   2.391       .  S
Zr727       O737   2.417       .  S
Zr727       O738   2.411       .  S
O728        H784   0.990       .  S
O728        H792   0.990       .  S
O729        C749   1.289       .  A
O730        C751   1.292       .  A
O731       Zr741   2.427       .  S
O731        C750   1.284       .  A
O732       Zr740   2.405       .  S
O732        C751   1.279       .  A
O733        C750   1.289       .  A
O734       Zr742   2.398       .  S
O734        C749   1.276       .  A
O735       Zr740   2.403       .  S
O735       Zr742   2.385       .  S
O736       Zr741   2.401       .  S
O736       Zr742   2.377       .  S
O736        H771   0.966       .  S
O737       Zr740   2.402       .  S
O737       Zr757   2.382       .  S
O737        H774   0.964       .  S
O738       Zr741   2.388       .  S
O738       Zr757   2.392       .  S
Zr739       O764   2.440       .  S
Zr739       O758   2.454       .  S
Zr739       O766   2.441       .  S
Zr739       O754   2.463       .  S
Zr739       O745   2.408       .  S
Zr739       O746   2.409       .  S
Zr739       O747   2.382       .  S
Zr739       O748   2.383       .  S
Zr740       O759   2.438       .  S
Zr740       O752   2.433       .  S
Zr740       O753   2.422       .  S
Zr740       O746   2.400       .  S
Zr740       O747   2.395       .  S
Zr741       O743   2.434       .  S
Zr741       O765   2.436       .  S
Zr741       O767   2.431       .  S
Zr741       O745   2.395       .  S
Zr741       O748   2.389       .  S
Zr742       O768   2.434       .  S
Zr742       O769   2.435       .  S
Zr742       O744   2.439       .  S
Zr742       O745   2.393       .  S
Zr742       O746   2.371       .  S
O743        H780   0.990       .  S
O744        H775   0.990       .  S
O744        H789   0.990       .  S
O746        H772   0.964       .  S
O747       Zr757   2.383       .  S
O748       Zr757   2.373       .  S
O748        H773   0.966       .  S
C749       C2858   1.489       .  S
C750       C3334   1.494       .  S
C751       C2827   1.487       .  S
O752        H788   0.990       .  S
O753        C755   1.283       .  A
O754        C755   1.290       .  A
C755       C2928   1.496       .  S
O756       Zr757   2.439       .  S
O756        H785   0.991       .  S
Zr757       O760   2.436       .  S
Zr757       O761   2.440       .  S
Zr757       O762   2.409       .  S
O758        C763   1.287       .  A
O759        H776   0.990       .  S
O759        H791   0.990       .  S
O760        H777   0.989       .  S
O761        H781   0.990       .  S
O761        H790   0.990       .  S
O762        C763   1.279       .  A
C763       C2872   1.485       .  S
O764        H783   0.990       .  S
O764        H787   0.990       .  S
O765        H779   0.990       .  S
O765        H786   0.990       .  S
O766        C770   1.286       .  A
O767        C770   1.284       .  A
O768        H778   0.990       .  S
O769        H782   0.990       .  S
C770       C2813   1.489       .  S
Zr793       O794   2.442       .  S
Zr793       O795   2.451       .  S
Zr793       O796   2.481       .  S
Zr793       O799   2.453       .  S
Zr793       O801   2.382       .  S
Zr793       O802   2.387       .  S
Zr793       O803   2.415       .  S
Zr793       O804   2.414       .  S
O794        H850   0.990       .  S
O794        H858   0.988       .  S
O795        C815   1.286       .  A
O796        C817   1.293       .  A
O797       Zr807   2.414       .  S
O797        C816   1.282       .  A
O798       Zr806   2.423       .  S
O798        C817   1.282       .  A
O799        C816   1.288       .  A
O800       Zr808   2.405       .  S
O800        C815   1.278       .  A
O801       Zr806   2.395       .  S
O801       Zr808   2.391       .  S
O802       Zr807   2.392       .  S
O802       Zr808   2.373       .  S
O802        H837   0.966       .  S
O803       Zr806   2.396       .  S
O803       Zr823   2.376       .  S
O803        H840   0.963       .  S
O804       Zr807   2.391       .  S
O804       Zr823   2.399       .  S
Zr805       O830   2.439       .  S
Zr805       O824   2.453       .  S
Zr805       O832   2.456       .  S
Zr805       O820   2.486       .  S
Zr805       O811   2.409       .  S
Zr805       O812   2.413       .  S
Zr805       O813   2.382       .  S
Zr805       O814   2.388       .  S
Zr806       O825   2.435       .  S
Zr806       O818   2.437       .  S
Zr806       O819   2.407       .  S
Zr806       O812   2.401       .  S
Zr806       O813   2.403       .  S
Zr807       O809   2.435       .  S
Zr807       O831   2.437       .  S
Zr807       O833   2.427       .  S
Zr807       O811   2.392       .  S
Zr807       O814   2.390       .  S
Zr808       O834   2.436       .  S
Zr808       O835   2.435       .  S
Zr808       O810   2.439       .  S
Zr808       O811   2.390       .  S
Zr808       O812   2.387       .  S
O809        H846   0.990       .  S
O810        H841   0.990       .  S
O810        H855   0.990       .  S
O812        H838   0.964       .  S
O813       Zr823   2.384       .  S
O814       Zr823   2.373       .  S
O814        H839   0.966       .  S
C815       C2771   1.487       .  S
C816       C2757   1.489       .  S
C817       C2802   1.510       .  S
O818        H854   0.990       .  S
O819        C821   1.281       .  A
O820        C821   1.294       .  A
C821       C2886   1.501       .  S
O822       Zr823   2.436       .  S
O822        H851   0.990       .  S
Zr823       O826   2.435       .  S
Zr823       O827   2.437       .  S
Zr823       O828   2.414       .  S
O824        C829   1.286       .  A
O825        H842   0.990       .  S
O825        H857   0.990       .  S
O826        H843   0.990       .  S
O827        H847   0.990       .  S
O827        H856   0.990       .  S
O828        C829   1.280       .  A
C829       C2788   1.491       .  S
O830        H849   0.988       .  S
O830        H853   0.990       .  S
O831        H845   0.990       .  S
O831        H852   0.990       .  S
O832        C836   1.290       .  A
O833        C836   1.284       .  A
O834        H844   0.990       .  S
O835        H848   0.990       .  S
C836       C3040   1.497       .  S
Zr859       O860   2.444       .  S
Zr859       O861   2.456       .  S
Zr859       O862   2.461       .  S
Zr859       O865   2.439       .  S
Zr859       O867   2.380       .  S
Zr859       O868   2.383       .  S
Zr859       O869   2.413       .  S
Zr859       O870   2.408       .  S
O860        H916   0.990       .  S
O860        H924   0.990       .  S
O861        C881   1.287       .  A
O862        C883   1.287       .  A
O863       Zr873   2.430       .  S
O863        C882   1.284       .  A
O864       Zr872   2.417       .  S
O864        C883   1.281       .  A
O865        C882   1.286       .  A
O866       Zr874   2.401       .  S
O866        C881   1.277       .  A
O867       Zr872   2.401       .  S
O867       Zr874   2.386       .  S
O868       Zr873   2.397       .  S
O868       Zr874   2.375       .  S
O868        H903   0.966       .  S
O869       Zr872   2.401       .  S
O869       Zr889   2.384       .  S
O869        H906   0.963       .  S
O870       Zr873   2.390       .  S
O870       Zr889   2.392       .  S
Zr871       O896   2.436       .  S
Zr871       O890   2.446       .  S
Zr871       O898   2.453       .  S
Zr871       O886   2.487       .  S
Zr871       O877   2.404       .  S
Zr871       O878   2.411       .  S
Zr871       O879   2.381       .  S
Zr871       O880   2.391       .  S
Zr872       O891   2.435       .  S
Zr872       O884   2.436       .  S
Zr872       O885   2.421       .  S
Zr872       O878   2.400       .  S
Zr872       O879   2.395       .  S
Zr873       O875   2.435       .  S
Zr873       O897   2.437       .  S
Zr873       O899   2.419       .  S
Zr873       O877   2.392       .  S
Zr873       O880   2.399       .  S
Zr874       O900   2.435       .  S
Zr874       O901   2.435       .  S
Zr874       O876   2.437       .  S
Zr874       O877   2.388       .  S
Zr874       O878   2.379       .  S
O875        H912   0.990       .  S
O876        H907   0.990       .  S
O876        H921   0.989       .  S
O878        H904   0.963       .  S
O879       Zr889   2.388       .  S
O880       Zr889   2.375       .  S
O880        H905   0.966       .  S
C881       C2774   1.484       .  S
C882       C3012   1.490       .  S
C883       C2830   1.478       .  S
O884        H920   0.990       .  S
O885        C887   1.283       .  A
O886        C887   1.294       .  A
C887       C2743   1.522       .  S
O888       Zr889   2.437       .  S
O888        H917   0.990       .  S
Zr889       O892   2.436       .  S
Zr889       O893   2.438       .  S
Zr889       O894   2.410       .  S
O890        C895   1.285       .  A
O891        H908   0.990       .  S
O891        H923   0.989       .  S
O892        H909   0.990       .  S
O893        H913   0.990       .  S
O893        H922   0.989       .  S
O894        C895   1.278       .  A
C895       C2785   1.489   1_556  S
O896        H915   0.989       .  S
O896        H919   0.990       .  S
O897        H911   0.990       .  S
O897        H918   0.989       .  S
O898        C902   1.287       .  A
O899        C902   1.282       .  A
O900        H910   0.990       .  S
O901        H914   0.990       .  S
C902       C2729   1.489       .  S
Zr925       O926   2.441       .  S
Zr925       O927   2.450       .  S
Zr925       O928   2.491       .  S
Zr925       O931   2.452       .  S
Zr925       O933   2.376       .  S
Zr925       O934   2.396       .  S
Zr925       O935   2.410       .  S
Zr925       O936   2.413       .  S
O926        H982   0.990       .  S
O926        H990   0.988       .  S
O927        C947   1.284       .  A
O928        C949   1.295       .  A
O929       Zr939   2.432       .  S
O929        C948   1.285       .  A
O930       Zr938   2.407       .  S
O930        C949   1.279       .  A
O931        C948   1.288       .  A
O932       Zr940   2.412       .  S
O932        C947   1.279       .  A
O933       Zr938   2.389       .  S
O933       Zr940   2.385       .  S
O934       Zr939   2.401       .  S
O934       Zr940   2.374       .  S
O934        H969   0.966       .  S
O935       Zr938   2.402       .  S
O935       Zr955   2.381       .  S
O935        H972   0.963       .  S
O936       Zr939   2.393       .  S
O936       Zr955   2.391       .  S
Zr937       O962   2.441       .  S
Zr937       O956   2.459       .  S
Zr937       O964   2.465       .  S
Zr937       O952   2.479       .  S
Zr937       O943   2.414       .  S
Zr937       O944   2.414       .  S
Zr937       O945   2.374       .  S
Zr937       O946   2.388       .  S
Zr938       O957   2.435       .  S
Zr938       O950   2.437       .  S
Zr938       O951   2.399       .  S
Zr938       O944   2.398       .  S
Zr938       O945   2.398       .  S
Zr939       O941   2.434       .  S
Zr939       O963   2.438       .  S
Zr939       O965   2.433       .  S
Zr939       O943   2.391       .  S
Zr939       O946   2.399       .  S
Zr940       O966   2.436       .  S
Zr940       O967   2.435       .  S
Zr940       O942   2.440       .  S
Zr940       O943   2.394       .  S
Zr940       O944   2.390       .  S
O941        H978   0.990       .  S
O942        H973   0.990       .  S
O942        H987   0.990       .  S
O944        H970   0.963       .  S
O945       Zr955   2.384       .  S
O946       Zr955   2.380       .  S
O946        H971   0.966       .  S
C947       C2715   1.484       .  S
C948       C2687   1.493       .  S
C949       C2799   1.509       .  S
O950        H986   0.990       .  S
O951        C953   1.279       .  A
O952        C953   1.292       .  A
C953       C2914   1.494       .  S
O954       Zr955   2.439       .  S
O954        H983   0.990       .  S
Zr955       O958   2.438       .  S
Zr955       O959   2.439       .  S
Zr955       O960   2.405       .  S
O956        C961   1.286       .  A
O957        H974   0.990       .  S
O957        H989   0.990       .  S
O958        H975   0.990       .  S
O959        H979   0.990       .  S
O959        H988   0.989       .  S
O960        C961   1.277       .  A
C961       C2701   1.490       .  S
O962        H981   0.987       .  S
O962        H985   0.990       .  S
O963        H977   0.990       .  S
O963        H984   0.990       .  S
O964        C968   1.291       .  A
O965        C968   1.286       .  A
O966        H976   0.990       .  S
O967        H980   0.990       .  S
C968       C3138   1.511       .  S
Zr991       O992   2.443       .  S
Zr991       O993   2.458       .  S
Zr991       O994   2.471       .  S
Zr991       O997   2.444   1_554  S
Zr991       O999   2.380       .  S
Zr991      O1000   2.392       .  S
Zr991      O1001   2.416   1_554  S
Zr991      O1002   2.417   1_554  S
O992       H1048   0.991       .  S
O992       H1056   0.991       .  S
O993       C1013   1.286       .  A
O994       C1015   1.289   1_554  A
O995      Zr1005   2.413       .  S
O995       C1014   1.282       .  A
O996      Zr1004   2.428       .  S
O996       C1015   1.283       .  A
O997       C1014   1.285       .  A
O998      Zr1006   2.403       .  S
O998       C1013   1.277       .  A
O999      Zr1004   2.396   1_554  S
O999      Zr1006   2.387       .  S
O1000     Zr1005   2.397   1_554  S
O1000     Zr1006   2.371       .  S
O1000      H1035   0.966       .  S
O1001     Zr1004   2.400       .  S
O1001     Zr1021   2.375       .  S
O1001      H1038   0.963       .  S
O1002     Zr1005   2.391       .  S
O1002     Zr1021   2.393       .  S
Zr1003     O1028   2.441       .  S
Zr1003     O1022   2.465       .  S
Zr1003     O1030   2.449       .  S
Zr1003     O1018   2.479       .  S
Zr1003     O1009   2.414       .  S
Zr1003     O1010   2.413       .  S
Zr1003     O1011   2.382       .  S
Zr1003     O1012   2.389       .  S
Zr1004     O1023   2.434       .  S
Zr1004     O1016   2.436   1_556  S
Zr1004     O1017   2.415       .  S
Zr1004     O1010   2.404       .  S
Zr1004     O1011   2.404       .  S
Zr1005     O1007   2.433       .  S
Zr1005     O1029   2.439       .  S
Zr1005     O1031   2.418       .  S
Zr1005     O1009   2.387       .  S
Zr1005     O1012   2.394       .  S
Zr1006     O1032   2.436       .  S
Zr1006     O1033   2.433       .  S
Zr1006     O1008   2.439       .  S
Zr1006     O1009   2.391   1_554  S
Zr1006     O1010   2.384   1_554  S
O1007      H1044   0.990       .  S
O1008      H1039   0.989       .  S
O1008      H1053   0.989       .  S
O1010      H1036   0.963       .  S
O1011     Zr1021   2.384       .  S
O1012     Zr1021   2.375       .  S
O1012      H1037   0.966       .  S
C1013      C2718   1.483       .  S
C1014      C3096   1.478       .  S
C1015      C2984   1.486   1_556  S
O1016      H1052   0.990       .  S
O1017      C1019   1.282       .  A
O1018      C1019   1.292       .  A
C1019      C2746   1.494       .  S
O1020     Zr1021   2.437       .  S
O1020      H1049   0.990       .  S
Zr1021     O1024   2.430       .  S
Zr1021     O1025   2.435       .  S
Zr1021     O1026   2.399       .  S
O1022      C1027   1.288       .  A
O1023      H1040   0.990       .  S
O1023      H1055   0.989       .  S
O1024      H1041   0.990       .  S
O1025      H1045   0.990       .  S
O1025      H1054   0.990       .  S
O1026      C1027   1.276       .  A
C1027      C2704   1.488       .  S
O1028      H1047   0.990       .  S
O1028      H1051   0.990       .  S
O1029      H1043   0.990   1_556  S
O1029      H1050   0.990       .  S
O1030      C1034   1.287       .  A
O1031      C1034   1.282       .  A
O1032      H1042   0.990       .  S
O1033      H1046   0.990   1_554  S
C1034      C2673   1.490       .  S
Zr1057     O1058   2.441       .  S
Zr1057     O1059   2.460       .  S
Zr1057     O1060   2.470       .  S
Zr1057     O1063   2.454       .  S
Zr1057     O1065   2.385       .  S
Zr1057     O1066   2.387       .  S
Zr1057     O1067   2.414       .  S
Zr1057     O1068   2.411       .  S
O1058      H1114   0.990       .  S
O1058      H1122   0.990       .  S
O1059      C1079   1.287       .  A
O1060      C1081   1.289       .  A
O1061     Zr1071   2.428       .  S
O1061      C1080   1.283       .  A
O1062     Zr1070   2.418       .  S
O1062      C1081   1.282       .  A
O1063      C1080   1.289       .  A
O1064     Zr1072   2.410       .  S
O1064      C1079   1.279       .  A
O1065     Zr1070   2.401       .  S
O1065     Zr1072   2.386       .  S
O1066     Zr1071   2.394       .  S
O1066     Zr1072   2.375       .  S
O1066      H1101   0.966       .  S
O1067     Zr1070   2.400       .  S
O1067     Zr1087   2.380       .  S
O1067      H1104   0.963       .  S
O1068     Zr1071   2.389       .  S
O1068     Zr1087   2.390       .  S
Zr1069     O1094   2.443       .  S
Zr1069     O1088   2.467       .  S
Zr1069     O1096   2.441       .  S
Zr1069     O1084   2.477       .  S
Zr1069     O1075   2.417       .  S
Zr1069     O1076   2.414       .  S
Zr1069     O1077   2.381       .  S
Zr1069     O1078   2.390       .  S
Zr1070     O1089   2.434       .  S
Zr1070     O1082   2.436       .  S
Zr1070     O1083   2.427       .  S
Zr1070     O1076   2.397       .  S
Zr1070     O1077   2.397       .  S
Zr1071     O1073   2.436       .  S
Zr1071     O1095   2.438       .  S
Zr1071     O1097   2.411       .  S
Zr1071     O1075   2.394       .  S
Zr1071     O1078   2.394       .  S
Zr1072     O1098   2.436       .  S
Zr1072     O1099   2.440       .  S
Zr1072     O1074   2.439       .  S
Zr1072     O1075   2.394       .  S
Zr1072     O1076   2.379       .  S
O1073      H1110   0.990       .  S
O1074      H1105   0.990       .  S
O1074      H1119   0.990       .  S
O1076      H1102   0.963       .  S
O1077     Zr1087   2.391       .  S
O1078     Zr1087   2.376       .  S
O1078      H1103   0.966       .  S
C1079      C2634   1.489       .  S
C1080      C3152   1.494       .  S
C1081      C2645   1.482       .  S
O1082      H1118   0.990       .  S
O1083      C1085   1.284       .  A
O1084      C1085   1.291       .  A
C1085      C2659   1.497       .  S
O1086     Zr1087   2.441       .  S
O1086      H1115   0.990       .  S
Zr1087     O1090   2.437       .  S
Zr1087     O1091   2.439       .  S
Zr1087     O1092   2.398       .  S
O1088      C1093   1.289       .  A
O1089      H1106   0.990       .  S
O1089      H1121   0.989       .  S
O1090      H1107   0.990       .  S
O1091      H1111   0.990       .  S
O1091      H1120   0.989       .  S
O1092      C1093   1.276       .  A
C1093      C2620   1.484       .  S
O1094      H1113   0.990       .  S
O1094      H1117   0.990       .  S
O1095      H1109   0.990       .  S
O1095      H1116   0.989       .  S
O1096      C1100   1.286       .  A
O1097      C1100   1.281       .  A
O1098      H1108   0.990       .  S
O1099      H1112   0.990       .  S
C1100      C2603   1.483       .  S
Zr1123     O1124   2.439   1_556  S
Zr1123     O1125   2.463   1_556  S
Zr1123     O1126   2.500       .  S
Zr1123     O1129   2.461       .  S
Zr1123     O1131   2.377       .  S
Zr1123     O1132   2.398       .  S
Zr1123     O1133   2.414       .  S
Zr1123     O1134   2.412       .  S
O1124      H1180   0.990       .  S
O1124      H1188   0.988       .  S
O1125      C1145   1.288       .  A
O1126      C1147   1.297       .  A
O1127     Zr1137   2.414       .  S
O1127      C1146   1.282       .  A
O1128     Zr1136   2.429       .  S
O1128      C1147   1.284       .  A
O1129      C1146   1.290       .  A
O1130     Zr1138   2.406   1_554  S
O1130      C1145   1.278       .  A
O1131     Zr1136   2.395       .  S
O1131     Zr1138   2.387       .  S
O1132     Zr1137   2.399       .  S
O1132     Zr1138   2.373       .  S
O1132      H1167   0.966   1_556  S
O1133     Zr1136   2.401       .  S
O1133     Zr1153   2.379       .  S
O1133      H1170   0.963       .  S
O1134     Zr1137   2.394       .  S
O1134     Zr1153   2.388       .  S
Zr1135     O1160   2.442       .  S
Zr1135     O1154   2.461       .  S
Zr1135     O1162   2.444       .  S
Zr1135     O1150   2.455       .  S
Zr1135     O1141   2.413       .  S
Zr1135     O1142   2.413       .  S
Zr1135     O1143   2.380       .  S
Zr1135     O1144   2.386       .  S
Zr1136     O1155   2.435       .  S
Zr1136     O1148   2.436       .  S
Zr1136     O1149   2.422       .  S
Zr1136     O1142   2.395       .  S
Zr1136     O1143   2.399       .  S
Zr1137     O1139   2.435       .  S
Zr1137     O1161   2.437       .  S
Zr1137     O1163   2.432       .  S
Zr1137     O1141   2.389       .  S
Zr1137     O1144   2.394       .  S
Zr1138     O1164   2.435   1_556  S
Zr1138     O1165   2.436       .  S
Zr1138     O1140   2.437   1_556  S
Zr1138     O1141   2.396       .  S
Zr1138     O1142   2.377       .  S
O1139      H1176   0.990       .  S
O1140      H1171   0.990       .  S
O1140      H1185   0.990       .  S
O1142      H1168   0.963       .  S
O1143     Zr1153   2.385       .  S
O1144     Zr1153   2.381       .  S
O1144      H1169   0.966       .  S
C1145      C2631   1.490       .  S
C1146      C2561   1.490       .  S
C1147      C2589   1.523       .  S
O1148      H1184   0.990   1_556  S
O1149      C1151   1.284       .  A
O1150      C1151   1.288       .  A
C1151      C2575   1.493       .  S
O1152     Zr1153   2.438       .  S
O1152      H1181   0.990       .  S
Zr1153     O1156   2.438       .  S
Zr1153     O1157   2.439       .  S
Zr1153     O1158   2.400       .  S
O1154      C1159   1.287       .  A
O1155      H1172   0.990       .  S
O1155      H1187   0.990       .  S
O1156      H1173   0.990       .  S
O1157      H1177   0.990       .  S
O1157      H1186   0.990       .  S
O1158      C1159   1.276       .  A
C1159      C2617   1.482       .  S
O1160      H1179   0.990       .  S
O1160      H1183   0.989       .  S
O1161      H1175   0.989       .  S
O1161      H1182   0.990       .  S
O1162      C1166   1.285       .  A
O1163      C1166   1.285       .  A
O1164      H1174   0.990   1_554  S
O1165      H1178   0.990       .  S
C1166      C3107   1.493       .  S
Zr1189     O1190   2.439       .  S
Zr1189     O1191   2.451       .  S
Zr1189     O1192   2.490       .  S
Zr1189     O1195   2.463       .  S
Zr1189     O1197   2.380       .  S
Zr1189     O1198   2.392       .  S
Zr1189     O1199   2.414   1_556  S
Zr1189     O1200   2.410   1_556  S
O1190      H1246   0.990       .  S
O1190      H1254   0.988       .  S
O1191      C1211   1.286       .  A
O1192      C1213   1.295   1_556  A
O1193     Zr1203   2.419       .  S
O1193      C1212   1.283   1_554  A
O1194     Zr1202   2.421       .  S
O1194      C1213   1.283       .  A
O1195      C1212   1.291       .  A
O1196     Zr1204   2.404       .  S
O1196      C1211   1.278       .  A
O1197     Zr1202   2.402   1_556  S
O1197     Zr1204   2.389       .  S
O1198     Zr1203   2.400   1_556  S
O1198     Zr1204   2.369       .  S
O1198      H1233   0.966       .  S
O1199     Zr1202   2.399       .  S
O1199     Zr1219   2.382       .  S
O1199      H1236   0.964       .  S
O1200     Zr1203   2.393       .  S
O1200     Zr1219   2.388       .  S
Zr1201     O1226   2.442       .  S
Zr1201     O1220   2.462       .  S
Zr1201     O1228   2.458       .  S
Zr1201     O1216   2.479       .  S
Zr1201     O1207   2.408       .  S
Zr1201     O1208   2.411       .  S
Zr1201     O1209   2.383       .  S
Zr1201     O1210   2.391       .  S
Zr1202     O1221   2.435       .  S
Zr1202     O1214   2.432       .  S
Zr1202     O1215   2.416       .  S
Zr1202     O1208   2.398       .  S
Zr1202     O1209   2.395       .  S
Zr1203     O1205   2.435       .  S
Zr1203     O1227   2.438       .  S
Zr1203     O1229   2.432       .  S
Zr1203     O1207   2.388       .  S
Zr1203     O1210   2.395       .  S
Zr1204     O1230   2.434       .  S
Zr1204     O1231   2.434   1_556  S
Zr1204     O1206   2.432       .  S
Zr1204     O1207   2.390   1_556  S
Zr1204     O1208   2.373   1_556  S
O1205      H1242   0.990       .  S
O1206      H1237   0.989       .  S
O1206      H1251   0.990       .  S
O1208      H1234   0.961       .  S
O1209     Zr1219   2.390       .  S
O1210     Zr1219   2.384       .  S
O1210      H1235   0.966       .  S
C1211      C2519   1.494       .  S
C1212      C2505   1.495       .  S
C1213      C2592   1.509   1_554  S
O1214      H1250   0.989   1_554  S
O1215      C1217   1.281       .  A
O1216      C1217   1.293       .  A
C1217      C2547   1.483       .  S
O1218     Zr1219   2.441       .  S
O1218      H1247   0.990       .  S
Zr1219     O1222   2.438       .  S
Zr1219     O1223   2.437       .  S
Zr1219     O1224   2.404       .  S
O1220      C1225   1.289       .  A
O1221      H1238   0.990       .  S
O1221      H1253   0.990       .  S
O1222      H1239   0.990       .  S
O1223      H1243   0.990       .  S
O1223      H1252   0.989       .  S
O1224      C1225   1.278       .  A
C1225      C2533   1.494       .  S
O1226      H1245   0.990       .  S
O1226      H1249   0.990       .  S
O1227      H1241   0.990       .  S
O1227      H1248   0.989   1_554  S
O1228      C1232   1.288       .  A
O1229      C1232   1.285       .  A
O1230      H1240   0.990       .  S
O1231      H1244   0.990       .  S
C1232      C3250   1.497       .  S
Zr1255     O1256   2.439       .  S
Zr1255     O1257   2.460       .  S
Zr1255     O1258   2.482       .  S
Zr1255     O1261   2.462       .  S
Zr1255     O1263   2.386       .  S
Zr1255     O1264   2.390       .  S
Zr1255     O1265   2.408       .  S
Zr1255     O1266   2.416       .  S
O1256      H1312   0.990       .  S
O1256      H1320   0.991       .  S
O1257      C1277   1.290       .  A
O1258      C1279   1.293       .  A
O1259     Zr1269   2.424       .  S
O1259      C1278   1.284       .  A
O1260     Zr1268   2.407       .  S
O1260      C1279   1.279       .  A
O1261      C1278   1.291       .  A
O1262     Zr1270   2.413       .  S
O1262      C1277   1.281       .  A
O1263     Zr1268   2.401       .  S
O1263     Zr1270   2.382       .  S
O1264     Zr1269   2.389       .  S
O1264     Zr1270   2.371       .  S
O1264      H1299   0.966       .  S
O1265     Zr1268   2.400       .  S
O1265     Zr1285   2.378       .  S
O1265      H1302   0.964       .  S
O1266     Zr1269   2.389       .  S
O1266     Zr1285   2.393       .  S
Zr1267     O1292   2.435       .  S
Zr1267     O1286   2.442       .  S
Zr1267     O1294   2.456       .  S
Zr1267     O1282   2.469       .  S
Zr1267     O1273   2.403       .  S
Zr1267     O1274   2.401       .  S
Zr1267     O1275   2.385       .  S
Zr1267     O1276   2.391       .  S
Zr1268     O1287   2.438       .  S
Zr1268     O1280   2.435       .  S
Zr1268     O1281   2.436       .  S
Zr1268     O1274   2.390       .  S
Zr1268     O1275   2.386       .  S
Zr1269     O1271   2.431       .  S
Zr1269     O1293   2.437       .  S
Zr1269     O1295   2.440       .  S
Zr1269     O1273   2.379       .  S
Zr1269     O1276   2.382       .  S
Zr1270     O1296   2.434       .  S
Zr1270     O1297   2.437       .  S
Zr1270     O1272   2.437       .  S
Zr1270     O1273   2.393       .  S
Zr1270     O1274   2.380       .  S
O1271      H1308   0.989       .  S
O1272      H1303   0.990       .  S
O1272      H1317   0.990       .  S
O1274      H1300   0.964       .  S
O1275     Zr1285   2.385       .  S
O1276     Zr1285   2.372       .  S
O1276      H1301   0.966       .  S
C1277      C2522   1.498       .  S
C1278      C3208   1.520       .  S
C1279      C2491   1.485       .  S
O1280      H1316   0.990       .  S
O1281      C1283   1.285       .  A
O1282      C1283   1.291       .  A
C1283      C2662   1.524       .  S
O1284     Zr1285   2.441       .  S
O1284      H1313   0.990       .  S
Zr1285     O1288   2.434       .  S
Zr1285     O1289   2.442       .  S
Zr1285     O1290   2.410       .  S
O1286      C1291   1.287       .  A
O1287      H1304   0.990       .  S
O1287      H1319   0.990       .  S
O1288      H1305   0.988       .  S
O1289      H1309   0.990       .  S
O1289      H1318   0.990       .  S
O1290      C1291   1.281       .  A
C1291      C2536   1.484       .  S
O1292      H1311   0.990       .  S
O1292      H1315   0.990       .  S
O1293      H1307   0.990       .  S
O1293      H1314   0.990       .  S
O1294      C1298   1.290       .  A
O1295      C1298   1.288       .  A
O1296      H1306   0.990       .  S
O1297      H1310   0.990       .  S
C1298      C2477   1.511       .  S
Zr1321     O1322   2.438       .  S
Zr1321     O1323   2.451       .  S
Zr1321     O1324   2.485       .  S
Zr1321     O1327   2.443       .  S
Zr1321     O1329   2.379       .  S
Zr1321     O1330   2.392       .  S
Zr1321     O1331   2.410       .  S
Zr1321     O1332   2.408       .  S
O1322      H1378   0.990       .  S
O1322      H1386   0.988       .  S
O1323      C1343   1.284       .  A
O1324      C1345   1.293       .  A
O1325     Zr1335   2.436       .  S
O1325      C1344   1.286       .  A
O1326     Zr1334   2.414       .  S
O1326      C1345   1.282       .  A
O1327      C1344   1.286       .  A
O1328     Zr1336   2.403       .  S
O1328      C1343   1.276       .  A
O1329     Zr1334   2.400       .  S
O1329     Zr1336   2.387       .  S
O1330     Zr1335   2.400       .  S
O1330     Zr1336   2.373       .  S
O1330      H1365   0.966       .  S
O1331     Zr1334   2.400       .  S
O1331     Zr1351   2.382       .  S
O1331      H1368   0.963       .  S
O1332     Zr1335   2.386       .  S
O1332     Zr1351   2.385       .  S
Zr1333     O1358   2.440       .  S
Zr1333     O1352   2.476       .  S
Zr1333     O1360   2.450       .  S
Zr1333     O1348   2.485       .  S
Zr1333     O1339   2.411       .  S
Zr1333     O1340   2.415       .  S
Zr1333     O1341   2.379       .  S
Zr1333     O1342   2.393       .  S
Zr1334     O1353   2.435       .  S
Zr1334     O1346   2.426       .  S
Zr1334     O1347   2.428       .  S
Zr1334     O1340   2.399       .  S
Zr1334     O1341   2.395       .  S
Zr1335     O1337   2.435       .  S
Zr1335     O1359   2.439       .  S
Zr1335     O1361   2.422       .  S
Zr1335     O1339   2.390       .  S
Zr1335     O1342   2.397       .  S
Zr1336     O1362   2.436       .  S
Zr1336     O1363   2.434       .  S
Zr1336     O1338   2.437       .  S
Zr1336     O1339   2.384       .  S
Zr1336     O1340   2.383       .  S
O1337      H1374   0.990       .  S
O1338      H1369   0.990       .  S
O1338      H1383   0.990       .  S
O1340      H1366   0.963       .  S
O1341     Zr1351   2.390       .  S
O1342     Zr1351   2.377       .  S
O1342      H1367   0.966       .  S
C1343      C2449   1.479       .  S
C1344      C2421   1.495       .  S
C1345      C2463   1.507       .  S
O1346      H1382   0.990       .  S
O1347      C1349   1.284       .  A
O1348      C1349   1.294       .  A
C1349      C2550   1.506       .  S
O1350     Zr1351   2.440       .  S
O1350      H1379   0.990       .  S
Zr1351     O1354   2.439       .  S
Zr1351     O1355   2.439       .  S
Zr1351     O1356   2.402       .  S
O1352      C1357   1.291       .  A
O1353      H1370   0.990       .  S
O1353      H1385   0.990       .  S
O1354      H1371   0.990       .  S
O1355      H1375   0.989       .  S
O1355      H1384   0.990       .  S
O1356      C1357   1.278       .  A
C1357      C2435   1.492   1_554  S
O1358      H1377   0.990       .  S
O1358      H1381   0.989       .  S
O1359      H1373   0.990       .  S
O1359      H1380   0.989       .  S
O1360      C1364   1.288       .  A
O1361      C1364   1.283       .  A
O1362      H1372   0.990       .  S
O1363      H1376   0.990       .  S
C1364      C3376   1.487       .  S
Zr1387     O1388   2.441       .  S
Zr1387     O1389   2.463       .  S
Zr1387     O1390   2.485       .  S
Zr1387     O1393   2.459       .  S
Zr1387     O1395   2.380       .  S
Zr1387     O1396   2.393       .  S
Zr1387     O1397   2.420       .  S
Zr1387     O1398   2.406       .  S
O1388      H1444   0.990       .  S
O1388      H1452   0.988       .  S
O1389      C1409   1.287       .  A
O1390      C1411   1.293       .  A
O1391     Zr1401   2.434       .  S
O1391      C1410   1.285       .  A
O1392     Zr1400   2.422       .  S
O1392      C1411   1.284       .  A
O1393      C1410   1.290       .  A
O1394     Zr1402   2.406       .  S
O1394      C1409   1.277       .  A
O1395     Zr1400   2.403       .  S
O1395     Zr1402   2.385       .  S
O1396     Zr1401   2.400       .  S
O1396     Zr1402   2.375       .  S
O1396      H1431   0.966       .  S
O1397     Zr1400   2.407       .  S
O1397     Zr1417   2.384       .  S
O1397      H1434   0.964       .  S
O1398     Zr1401   2.384       .  S
O1398     Zr1417   2.383       .  S
Zr1399     O1424   2.442       .  S
Zr1399     O1418   2.459       .  S
Zr1399     O1426   2.442       .  S
Zr1399     O1414   2.470       .  S
Zr1399     O1405   2.411       .  S
Zr1399     O1406   2.412       .  S
Zr1399     O1407   2.378       .  S
Zr1399     O1408   2.388       .  S
Zr1400     O1419   2.437       .  S
Zr1400     O1412   2.430       .  S
Zr1400     O1413   2.444       .  S
Zr1400     O1406   2.398       .  S
Zr1400     O1407   2.396       .  S
Zr1401     O1403   2.435       .  S
Zr1401     O1425   2.437       .  S
Zr1401     O1427   2.421       .  S
Zr1401     O1405   2.393       .  S
Zr1401     O1408   2.395       .  S
Zr1402     O1428   2.436       .  S
Zr1402     O1429   2.435       .  S
Zr1402     O1404   2.437       .  S
Zr1402     O1405   2.394       .  S
Zr1402     O1406   2.375       .  S
O1403      H1440   0.990       .  S
O1404      H1435   0.990       .  S
O1404      H1449   0.990       .  S
O1406      H1432   0.963       .  S
O1407     Zr1417   2.391       .  S
O1408     Zr1417   2.374       .  S
O1408      H1433   0.966       .  S
C1409      C2438   1.488       .  S
C1410      C2393   1.498       .  S
C1411      C2410   1.507       .  S
O1412      H1448   0.990       .  S
O1413      C1415   1.287       .  A
O1414      C1415   1.290       .  A
C1415      C2494   1.498       .  S
O1416     Zr1417   2.437       .  S
O1416      H1445   0.990       .  S
Zr1417     O1420   2.435       .  S
Zr1417     O1421   2.440       .  S
Zr1417     O1422   2.402       .  S
O1418      C1423   1.287       .  A
O1419      H1436   0.990       .  S
O1419      H1451   0.990       .  S
O1420      H1437   0.990       .  S
O1421      H1441   0.989       .  S
O1421      H1450   0.990       .  S
O1422      C1423   1.277       .  A
C1423      C2452   1.483       .  S
O1424      H1443   0.990       .  S
O1424      H1447   0.990       .  S
O1425      H1439   0.990       .  S
O1425      H1446   0.989       .  S
O1426      C1430   1.286       .  A
O1427      C1430   1.283       .  A
O1428      H1438   0.990       .  S
O1429      H1442   0.990       .  S
C1430      C3320   1.488       .  S
Zr1453     O1454   2.441       .  S
Zr1453     O1455   2.459       .  S
Zr1453     O1456   2.476       .  S
Zr1453     O1459   2.448       .  S
Zr1453     O1461   2.374       .  S
Zr1453     O1462   2.391       .  S
Zr1453     O1463   2.418       .  S
Zr1453     O1464   2.414       .  S
O1454      H1510   0.990       .  S
O1454      H1518   0.988       .  S
O1455      C1475   1.287       .  A
O1456      C1477   1.291       .  A
O1457     Zr1467   2.420       .  S
O1457      C1476   1.283       .  A
O1458     Zr1466   2.422       .  S
O1458      C1477   1.284       .  A
O1459      C1476   1.287       .  A
O1460     Zr1468   2.403       .  S
O1460      C1475   1.277       .  A
O1461     Zr1466   2.399       .  S
O1461     Zr1468   2.386       .  S
O1462     Zr1467   2.398       .  S
O1462     Zr1468   2.374       .  S
O1462      H1497   0.966       .  S
O1463     Zr1466   2.396       .  S
O1463     Zr1483   2.382       .  S
O1463      H1500   0.964       .  S
O1464     Zr1467   2.390       .  S
O1464     Zr1483   2.395       .  S
Zr1465     O1490   2.443       .  S
Zr1465     O1484   2.441       .  S
Zr1465     O1492   2.439       .  S
Zr1465     O1480   2.463       .  S
Zr1465     O1471   2.410       .  S
Zr1465     O1472   2.411       .  S
Zr1465     O1473   2.383       .  S
Zr1465     O1474   2.386       .  S
Zr1466     O1485   2.435       .  S
Zr1466     O1478   2.432       .  S
Zr1466     O1479   2.422       .  S
Zr1466     O1472   2.404       .  S
Zr1466     O1473   2.396       .  S
Zr1467     O1469   2.436       .  S
Zr1467     O1491   2.437       .  S
Zr1467     O1493   2.430       .  S
Zr1467     O1471   2.391       .  S
Zr1467     O1474   2.389       .  S
Zr1468     O1494   2.435       .  S
Zr1468     O1495   2.436       .  S
Zr1468     O1470   2.438       .  S
Zr1468     O1471   2.393       .  S
Zr1468     O1472   2.377       .  S
O1469      H1506   0.990       .  S
O1470      H1501   0.990       .  S
O1470      H1515   0.990       .  S
O1472      H1498   0.963       .  S
O1473     Zr1483   2.389       .  S
O1474     Zr1483   2.378       .  S
O1474      H1499   0.966       .  S
C1475      C2382   1.491       .  S
C1476      C2351   1.488       .  S
C1477      C2466   1.506       .  S
O1478      H1514   0.990       .  S
O1479      C1481   1.283       .  A
O1480      C1481   1.289       .  A
C1481      C2648   1.487       .  S
O1482     Zr1483   2.441       .  S
O1482      H1511   0.990       .  S
Zr1483     O1486   2.438       .  S
Zr1483     O1487   2.440       .  S
Zr1483     O1488   2.413       .  S
O1484      C1489   1.283       .  A
O1485      H1502   0.990       .  S
O1485      H1517   0.990       .  S
O1486      H1503   0.990       .  S
O1487      H1507   0.990       .  S
O1487      H1516   0.990       .  S
O1488      C1489   1.280       .  A
C1489      C2365   1.484       .  S
O1490      H1509   0.990       .  S
O1490      H1513   0.990       .  S
O1491      H1505   0.990       .  S
O1491      H1512   0.990       .  S
O1492      C1496   1.286       .  A
O1493      C1496   1.284       .  A
O1494      H1504   0.990       .  S
O1495      H1508   0.990       .  S
C1496      C3054   1.493       .  S
Zr1519     O1520   2.440       .  S
Zr1519     O1521   2.443       .  S
Zr1519     O1522   2.488       .  S
Zr1519     O1525   2.445       .  S
Zr1519     O1527   2.380       .  S
Zr1519     O1528   2.394       .  S
Zr1519     O1529   2.409       .  S
Zr1519     O1530   2.412       .  S
O1520      H1576   0.990       .  S
O1520      H1584   0.987       .  S
O1521      C1541   1.283       .  A
O1522      C1543   1.294       .  A
O1523     Zr1533   2.430       .  S
O1523      C1542   1.285       .  A
O1524     Zr1532   2.406       .  S
O1524      C1543   1.280       .  A
O1525      C1542   1.287       .  A
O1526     Zr1534   2.413       .  S
O1526      C1541   1.278       .  A
O1527     Zr1532   2.397       .  S
O1527     Zr1534   2.391       .  S
O1528     Zr1533   2.400       .  S
O1528     Zr1534   2.374       .  S
O1528      H1563   0.966       .  S
O1529     Zr1532   2.397       .  S
O1529     Zr1549   2.376       .  S
O1529      H1566   0.963       .  S
O1530     Zr1533   2.388       .  S
O1530     Zr1549   2.389       .  S
Zr1531     O1556   2.439       .  S
Zr1531     O1550   2.451       .  S
Zr1531     O1558   2.445       .  S
Zr1531     O1546   2.494       .  S
Zr1531     O1537   2.415       .  S
Zr1531     O1538   2.408       .  S
Zr1531     O1539   2.376       .  S
Zr1531     O1540   2.396       .  S
Zr1532     O1551   2.437       .  S
Zr1532     O1544   2.434       .  S
Zr1532     O1545   2.415       .  S
Zr1532     O1538   2.396       .  S
Zr1532     O1539   2.395       .  S
Zr1533     O1535   2.435       .  S
Zr1533     O1557   2.441       .  S
Zr1533     O1559   2.424       .  S
Zr1533     O1537   2.396       .  S
Zr1533     O1540   2.396       .  S
Zr1534     O1560   2.437       .  S
Zr1534     O1561   2.435       .  S
Zr1534     O1536   2.438       .  S
Zr1534     O1537   2.392       .  S
Zr1534     O1538   2.380       .  S
O1535      H1572   0.990       .  S
O1536      H1567   0.990       .  S
O1536      H1581   0.989       .  S
O1538      H1564   0.963       .  S
O1539     Zr1549   2.389       .  S
O1540     Zr1549   2.374       .  S
O1540      H1565   0.966       .  S
C1541      C2379   1.485   1_556  S
C1542      C3026   1.495       .  S
C1543      C2578   1.507       .  S
O1544      H1580   0.990       .  S
O1545      C1547   1.282       .  A
O1546      C1547   1.295       .  A
C1547      C2407   1.510       .  S
O1548     Zr1549   2.434       .  S
O1548      H1577   0.990       .  S
Zr1549     O1552   2.435       .  S
Zr1549     O1553   2.438       .  S
Zr1549     O1554   2.408       .  S
O1550      C1555   1.286       .  A
O1551      H1568   0.990       .  S
O1551      H1583   0.990       .  S
O1552      H1569   0.990       .  S
O1553      H1573   0.989       .  S
O1553      H1582   0.990       .  S
O1554      C1555   1.279       .  A
C1555      C2368   1.491       .  S
O1556      H1575   0.988       .  S
O1556      H1579   0.990       .  S
O1557      H1571   0.989       .  S
O1557      H1578   0.990       .  S
O1558      C1562   1.287       .  A
O1559      C1562   1.283       .  A
O1560      H1570   0.990       .  S
O1561      H1574   0.990       .  S
C1562      C2337   1.489       .  S
Zr1585     O1586   2.442       .  S
Zr1585     O1587   2.469       .  S
Zr1585     O1588   2.450       .  S
Zr1585     O1591   2.471       .  S
Zr1585     O1593   2.381       .  S
Zr1585     O1594   2.383       .  S
Zr1585     O1595   2.428       .  S
Zr1585     O1596   2.401       .  S
O1586      H1642   0.990       .  S
O1586      H1650   0.989       .  S
O1587      C1607   1.288       .  A
O1588      C1609   1.287       .  A
O1589     Zr1599   2.421       .  S
O1589      C1608   1.284       .  A
O1590     Zr1598   2.418       .  S
O1590      C1609   1.282       .  A
O1591      C1608   1.292       .  A
O1592     Zr1600   2.398       .  S
O1592      C1607   1.277       .  A
O1593     Zr1598   2.401       .  S
O1593     Zr1600   2.377       .  S
O1594     Zr1599   2.395       .  S
O1594     Zr1600   2.377       .  S
O1594      H1629   0.965       .  S
O1595     Zr1598   2.410       .  S
O1595     Zr1615   2.397   1_554  S
O1595      H1632   0.965       .  S
O1596     Zr1599   2.383       .  S
O1596     Zr1615   2.386   1_554  S
Zr1597     O1622   2.443   1_554  S
Zr1597     O1616   2.448   1_554  S
Zr1597     O1624   2.446       .  S
Zr1597     O1612   2.447   1_554  S
Zr1597     O1603   2.404       .  S
Zr1597     O1604   2.412       .  S
Zr1597     O1605   2.379   1_554  S
Zr1597     O1606   2.385       .  S
Zr1598     O1617   2.436       .  S
Zr1598     O1610   2.435       .  S
Zr1598     O1611   2.443       .  S
Zr1598     O1604   2.393       .  S
Zr1598     O1605   2.393   1_554  S
Zr1599     O1601   2.435       .  S
Zr1599     O1623   2.439       .  S
Zr1599     O1625   2.418       .  S
Zr1599     O1603   2.390       .  S
Zr1599     O1606   2.397       .  S
Zr1600     O1626   2.431       .  S
Zr1600     O1627   2.434       .  S
Zr1600     O1602   2.439       .  S
Zr1600     O1603   2.391       .  S
Zr1600     O1604   2.376       .  S
O1601      H1638   0.990       .  S
O1602      H1633   0.990       .  S
O1602      H1647   0.990       .  S
O1604      H1630   0.963       .  S
O1605     Zr1615   2.383       .  S
O1606     Zr1615   2.383   1_554  S
O1606      H1631   0.966   1_554  S
C1607      C2298   1.494       .  S
C1608      C2312   1.510       .  S
C1609      C2942   1.485       .  S
O1610      H1646   0.990       .  S
O1611      C1613   1.287   1_554  A
O1612      C1613   1.287       .  A
C1613      C2508   1.495       .  S
O1614     Zr1615   2.439   1_554  S
O1614      H1643   0.990   1_554  S
Zr1615     O1618   2.437       .  S
Zr1615     O1619   2.439       .  S
Zr1615     O1620   2.406       .  S
O1616      C1621   1.285       .  A
O1617      H1634   0.990   1_554  S
O1617      H1649   0.990       .  S
O1618      H1635   0.990       .  S
O1619      H1639   0.990       .  S
O1619      H1648   0.990       .  S
O1620      C1621   1.278       .  A
C1621      C2281   1.483       .  S
O1622      H1641   0.990       .  S
O1622      H1645   0.990       .  S
O1623      H1637   0.990       .  S
O1623      H1644   0.990       .  S
O1624      C1628   1.285       .  A
O1625      C1628   1.282       .  A
O1626      H1636   0.990       .  S
O1627      H1640   0.990       .  S
C1628      C2326   1.482       .  S
Zr1651     O1652   2.442       .  S
Zr1651     O1653   2.461       .  S
Zr1651     O1654   2.449       .  S
Zr1651     O1657   2.457       .  S
Zr1651     O1659   2.385       .  S
Zr1651     O1660   2.387       .  S
Zr1651     O1661   2.417       .  S
Zr1651     O1662   2.401       .  S
O1652      H1708   0.990       .  S
O1652      H1716   0.990       .  S
O1653      C1673   1.288       .  A
O1654      C1675   1.286       .  A
O1655     Zr1665   2.442       .  S
O1655      C1674   1.287       .  A
O1656     Zr1664   2.429       .  S
O1656      C1675   1.284       .  A
O1657      C1674   1.289       .  A
O1658     Zr1666   2.395       .  S
O1658      C1673   1.276       .  A
O1659     Zr1664   2.400       .  S
O1659     Zr1666   2.383       .  S
O1660     Zr1665   2.394       .  S
O1660     Zr1666   2.391       .  S
O1660      H1695   0.966       .  S
O1661     Zr1664   2.403       .  S
O1661     Zr1681   2.393       .  S
O1661      H1698   0.964       .  S
O1662     Zr1665   2.377       .  S
O1662     Zr1681   2.386       .  S
Zr1663     O1688   2.441       .  S
Zr1663     O1682   2.458       .  S
Zr1663     O1690   2.450       .  S
Zr1663     O1678   2.463       .  S
Zr1663     O1669   2.405       .  S
Zr1663     O1670   2.402       .  S
Zr1663     O1671   2.379       .  S
Zr1663     O1672   2.388       .  S
Zr1664     O1683   2.435       .  S
Zr1664     O1676   2.435       .  S
Zr1664     O1677   2.446       .  S
Zr1664     O1670   2.391       .  S
Zr1664     O1671   2.389       .  S
Zr1665     O1667   2.435       .  S
Zr1665     O1689   2.438       .  S
Zr1665     O1691   2.422       .  S
Zr1665     O1669   2.387       .  S
Zr1665     O1672   2.398       .  S
Zr1666     O1692   2.436       .  S
Zr1666     O1693   2.436       .  S
Zr1666     O1668   2.441       .  S
Zr1666     O1669   2.390       .  S
Zr1666     O1670   2.380       .  S
O1667      H1704   0.990       .  S
O1668      H1699   0.990       .  S
O1668      H1713   0.990       .  S
O1670      H1696   0.964       .  S
O1671     Zr1681   2.375       .  S
O1672     Zr1681   2.376       .  S
O1672      H1697   0.966       .  S
C1673      C2284   1.482       .  S
C1674      C2256   1.498       .  S
C1675      C2900   1.488       .  S
O1676      H1712   0.990       .  S
O1677      C1679   1.290       .  A
O1678      C1679   1.291       .  A
C1679      C2480   1.517       .  S
O1680     Zr1681   2.436       .  S
O1680      H1709   0.990       .  S
Zr1681     O1684   2.433       .  S
Zr1681     O1685   2.441       .  S
Zr1681     O1686   2.418       .  S
O1682      C1687   1.291       .  A
O1683      H1700   0.990       .  S
O1683      H1715   0.990       .  S
O1684      H1701   0.990       .  S
O1685      H1705   0.990       .  S
O1685      H1714   0.989       .  S
O1686      C1687   1.281       .  A
C1687      C2295   1.498       .  S
O1688      H1707   0.990       .  S
O1688      H1711   0.990       .  S
O1689      H1703   0.990       .  S
O1689      H1710   0.990       .  S
O1690      C1694   1.288       .  A
O1691      C1694   1.283       .  A
O1692      H1702   0.990       .  S
O1693      H1706   0.990       .  S
C1694      C2267   1.482       .  S
Zr1717     O1718   2.442       .  S
Zr1717     O1719   2.465       .  S
Zr1717     O1720   2.450       .  S
Zr1717     O1723   2.461       .  S
Zr1717     O1725   2.383       .  S
Zr1717     O1726   2.384       .  S
Zr1717     O1727   2.421       .  S
Zr1717     O1728   2.401       .  S
O1718      H1774   0.990       .  S
O1718      H1782   0.990       .  S
O1719      C1739   1.288       .  A
O1720      C1741   1.286       .  A
O1721     Zr1731   2.422       .  S
O1721      C1740   1.283       .  A
O1722     Zr1730   2.426       .  S
O1722      C1741   1.284       .  A
O1723      C1740   1.290       .  A
O1724     Zr1732   2.391       .  S
O1724      C1739   1.274       .  A
O1725     Zr1730   2.403       .  S
O1725     Zr1732   2.382       .  S
O1726     Zr1731   2.396       .  S
O1726     Zr1732   2.381       .  S
O1726      H1761   0.965       .  S
O1727     Zr1730   2.401       .  S
O1727     Zr1747   2.382       .  S
O1727      H1764   0.964       .  S
O1728     Zr1731   2.382       .  S
O1728     Zr1747   2.383       .  S
Zr1729     O1754   2.442       .  S
Zr1729     O1748   2.466       .  S
Zr1729     O1756   2.454       .  S
Zr1729     O1744   2.455       .  S
Zr1729     O1735   2.409       .  S
Zr1729     O1736   2.413       .  S
Zr1729     O1737   2.384       .  S
Zr1729     O1738   2.385       .  S
Zr1730     O1749   2.437       .  S
Zr1730     O1742   2.435       .  S
Zr1730     O1743   2.439       .  S
Zr1730     O1736   2.399       .  S
Zr1730     O1737   2.397       .  S
Zr1731     O1733   2.434       .  S
Zr1731     O1755   2.439       .  S
Zr1731     O1757   2.412       .  S
Zr1731     O1735   2.388       .  S
Zr1731     O1738   2.398       .  S
Zr1732     O1758   2.437       .  S
Zr1732     O1759   2.434       .  S
Zr1732     O1734   2.437       .  S
Zr1732     O1735   2.386       .  S
Zr1732     O1736   2.375       .  S
O1733      H1770   0.990       .  S
O1734      H1765   0.990       .  S
O1734      H1779   0.990       .  S
O1736      H1762   0.963       .  S
O1737     Zr1747   2.387       .  S
O1738     Zr1747   2.382       .  S
O1738      H1763   0.966       .  S
C1739      C2211   1.485       .  S
C1740      C2270   1.493       .  S
C1741      C2606   1.485       .  S
O1742      H1778   0.990       .  S
O1743      C1745   1.286       .  A
O1744      C1745   1.289       .  A
C1745      C2690   1.491       .  S
O1746     Zr1747   2.436       .  S
O1746      H1775   0.990       .  S
Zr1747     O1750   2.435       .  S
Zr1747     O1751   2.439       .  S
Zr1747     O1752   2.398       .  S
O1748      C1753   1.289       .  A
O1749      H1766   0.990       .  S
O1749      H1781   0.990       .  S
O1750      H1767   0.990       .  S
O1751      H1771   0.990       .  S
O1751      H1780   0.989       .  S
O1752      C1753   1.276       .  A
C1753      C2225   1.482       .  S
O1754      H1773   0.990       .  S
O1754      H1777   0.991       .  S
O1755      H1769   0.990       .  S
O1755      H1776   0.990       .  S
O1756      C1760   1.286       .  A
O1757      C1760   1.281       .  A
O1758      H1768   0.989       .  S
O1759      H1772   0.990       .  S
C1760      C2242   1.479       .  S
Zr1783     O1784   2.442       .  S
Zr1783     O1785   2.461       .  S
Zr1783     O1786   2.445       .  S
Zr1783     O1789   2.438       .  S
Zr1783     O1791   2.377       .  S
Zr1783     O1792   2.386       .  S
Zr1783     O1793   2.420       .  S
Zr1783     O1794   2.407       .  S
O1784      H1840   0.990       .  S
O1784      H1848   0.990       .  S
O1785      C1805   1.287       .  A
O1786      C1807   1.285       .  A
O1787     Zr1797   2.423       .  S
O1787      C1806   1.283       .  A
O1788     Zr1796   2.439       .  S
O1788      C1807   1.286       .  A
O1789      C1806   1.285       .  A
O1790     Zr1798   2.401       .  S
O1790      C1805   1.276       .  A
O1791     Zr1796   2.404       .  S
O1791     Zr1798   2.385       .  S
O1792     Zr1797   2.401       .  S
O1792     Zr1798   2.374       .  S
O1792      H1827   0.966       .  S
O1793     Zr1796   2.400       .  S
O1793     Zr1813   2.384   1_556  S
O1793      H1830   0.964       .  S
O1794     Zr1797   2.385       .  S
O1794     Zr1813   2.387   1_556  S
Zr1795     O1820   2.443   1_556  S
Zr1795     O1814   2.467   1_556  S
Zr1795     O1822   2.443       .  S
Zr1795     O1810   2.446       .  S
Zr1795     O1801   2.406       .  S
Zr1795     O1802   2.413       .  S
Zr1795     O1803   2.381       .  S
Zr1795     O1804   2.384       .  S
Zr1796     O1815   2.435       .  S
Zr1796     O1808   2.435       .  S
Zr1796     O1809   2.439       .  S
Zr1796     O1802   2.398       .  S
Zr1796     O1803   2.400       .  S
Zr1797     O1799   2.436       .  S
Zr1797     O1821   2.439       .  S
Zr1797     O1823   2.422       .  S
Zr1797     O1801   2.389       .  S
Zr1797     O1804   2.395       .  S
Zr1798     O1824   2.434       .  S
Zr1798     O1825   2.435       .  S
Zr1798     O1800   2.437       .  S
Zr1798     O1801   2.386       .  S
Zr1798     O1802   2.381       .  S
O1799      H1836   0.990       .  S
O1800      H1831   0.990       .  S
O1800      H1845   0.990       .  S
O1802      H1828   0.964       .  S
O1803     Zr1813   2.388   1_556  S
O1804     Zr1813   2.380   1_556  S
O1804      H1829   0.966   1_556  S
C1805      C2214   1.486       .  S
C1806      C2200   1.481       .  S
C1807      C2676   1.489       .  S
O1808      H1844   0.990       .  S
O1809      C1811   1.286       .  A
O1810      C1811   1.286       .  A
C1811      C2564   1.489       .  S
O1812     Zr1813   2.439   1_556  S
O1812      H1841   0.990   1_556  S
Zr1813     O1816   2.438       .  S
Zr1813     O1817   2.436       .  S
Zr1813     O1818   2.406       .  S
O1814      C1819   1.289       .  A
O1815      H1832   0.990       .  S
O1815      H1847   0.990       .  S
O1816      H1833   0.990       .  S
O1817      H1837   0.990       .  S
O1817      H1846   0.989       .  S
O1818      C1819   1.277       .  A
C1819      C2228   1.484       .  S
O1820      H1839   0.990       .  S
O1820      H1843   0.991       .  S
O1821      H1835   0.990       .  S
O1821      H1842   0.990       .  S
O1822      C1826   1.284       .  A
O1823      C1826   1.283       .  A
O1824      H1834   0.990       .  S
O1825      H1838   0.990       .  S
C1826      C2323   1.483       .  S
Zr1849     O1850   2.441       .  S
Zr1849     O1851   2.451       .  S
Zr1849     O1852   2.439       .  S
Zr1849     O1855   2.446       .  S
Zr1849     O1857   2.385       .  S
Zr1849     O1858   2.383       .  S
Zr1849     O1859   2.417       .  S
Zr1849     O1860   2.400       .  S
O1850      H1906   0.990       .  S
O1850      H1914   0.989       .  S
O1851      C1871   1.285       .  A
O1852      C1873   1.284       .  A
O1853     Zr1863   2.415       .  S
O1853      C1872   1.282       .  A
O1854     Zr1862   2.451       .  S
O1854      C1873   1.288       .  A
O1855      C1872   1.286       .  A
O1856     Zr1864   2.401       .  S
O1856      C1871   1.276       .  A
O1857     Zr1862   2.398       .  S
O1857     Zr1864   2.383       .  S
O1858     Zr1863   2.399       .  S
O1858     Zr1864   2.383       .  S
O1858      H1893   0.965       .  S
O1859     Zr1862   2.400       .  S
O1859     Zr1879   2.379       .  S
O1859      H1896   0.964       .  S
O1860     Zr1863   2.383       .  S
O1860     Zr1879   2.386       .  S
Zr1861     O1886   2.441       .  S
Zr1861     O1880   2.470       .  S
Zr1861     O1888   2.458       .  S
Zr1861     O1876   2.443       .  S
Zr1861     O1867   2.401       .  S
Zr1861     O1868   2.424       .  S
Zr1861     O1869   2.385       .  S
Zr1861     O1870   2.382       .  S
Zr1862     O1881   2.434       .  S
Zr1862     O1874   2.437       .  S
Zr1862     O1875   2.436       .  S
Zr1862     O1868   2.408       .  S
Zr1862     O1869   2.403       .  S
Zr1863     O1865   2.436       .  S
Zr1863     O1887   2.438       .  S
Zr1863     O1889   2.421       .  S
Zr1863     O1867   2.382       .  S
Zr1863     O1870   2.397       .  S
Zr1864     O1890   2.438       .  S
Zr1864     O1891   2.435       .  S
Zr1864     O1866   2.441       .  S
Zr1864     O1867   2.386       .  S
Zr1864     O1868   2.390       .  S
O1865      H1902   0.990       .  S
O1866      H1897   0.990       .  S
O1866      H1911   0.990       .  S
O1868      H1894   0.964       .  S
O1869     Zr1879   2.380       .  S
O1870     Zr1879   2.385       .  S
O1870      H1895   0.966       .  S
C1871      C2155   1.479       .  S
C1872      C2239   1.482       .  S
C1873      C2760   1.491       .  S
O1874      H1910   0.990       .  S
O1875      C1877   1.286       .  A
O1876      C1877   1.285       .  A
C1877      C2354   1.484       .  S
O1878     Zr1879   2.436       .  S
O1878      H1907   0.990       .  S
Zr1879     O1882   2.435       .  S
Zr1879     O1883   2.437       .  S
Zr1879     O1884   2.402       .  S
O1880      C1885   1.289       .  A
O1881      H1898   0.990       .  S
O1881      H1913   0.990       .  S
O1882      H1899   0.990       .  S
O1883      H1903   0.990       .  S
O1883      H1912   0.990       .  S
O1884      C1885   1.277       .  A
C1885      C2169   1.493       .  S
O1886      H1905   0.990       .  S
O1886      H1909   0.990       .  S
O1887      H1901   0.990       .  S
O1887      H1908   0.990       .  S
O1888      C1892   1.289       .  A
O1889      C1892   1.283       .  A
O1890      H1900   0.989       .  S
O1891      H1904   0.990       .  S
C1892      C2186   1.493       .  S
Zr1915     O1916   2.441       .  S
Zr1915     O1917   2.465       .  S
Zr1915     O1918   2.448       .  S
Zr1915     O1921   2.460       .  S
Zr1915     O1923   2.384       .  S
Zr1915     O1924   2.384       .  S
Zr1915     O1925   2.421       .  S
Zr1915     O1926   2.404       .  S
O1916      H1972   0.990       .  S
O1916      H1980   0.990       .  S
O1917      C1937   1.288       .  A
O1918      C1939   1.287       .  A
O1919     Zr1929   2.417       .  S
O1919      C1938   1.281       .  A
O1920     Zr1928   2.436       .  S
O1920      C1939   1.286       .  A
O1921      C1938   1.289       .  A
O1922     Zr1930   2.410       .  S
O1922      C1937   1.278       .  A
O1923     Zr1928   2.405       .  S
O1923     Zr1930   2.382       .  S
O1924     Zr1929   2.406       .  S
O1924     Zr1930   2.383       .  S
O1924      H1959   0.966       .  S
O1925     Zr1928   2.400       .  S
O1925     Zr1945   2.381       .  S
O1925      H1962   0.964       .  S
O1926     Zr1929   2.381       .  S
O1926     Zr1945   2.387       .  S
Zr1927     O1952   2.441       .  S
Zr1927     O1946   2.452       .  S
Zr1927     O1954   2.463       .  S
Zr1927     O1942   2.454       .  S
Zr1927     O1933   2.399       .  S
Zr1927     O1934   2.416       .  S
Zr1927     O1935   2.384       .  S
Zr1927     O1936   2.385       .  S
Zr1928     O1947   2.436       .  S
Zr1928     O1940   2.434       .  S
Zr1928     O1941   2.428       .  S
Zr1928     O1934   2.407       .  S
Zr1928     O1935   2.396       .  S
Zr1929     O1931   2.437       .  S
Zr1929     O1953   2.440       .  S
Zr1929     O1955   2.422       .  S
Zr1929     O1933   2.383       .  S
Zr1929     O1936   2.395       .  S
Zr1930     O1956   2.433       .  S
Zr1930     O1957   2.434       .  S
Zr1930     O1932   2.437       .  S
Zr1930     O1933   2.386       .  S
Zr1930     O1934   2.388       .  S
O1931      H1968   0.990       .  S
O1932      H1963   0.990       .  S
O1932      H1977   0.989       .  S
O1934      H1960   0.964       .  S
O1935     Zr1945   2.378       .  S
O1936     Zr1945   2.387       .  S
O1936      H1961   0.966       .  S
C1937      C2172   1.492   1_556  S
C1938      C2197   1.482       .  S
C1939      C2732   1.489       .  S
O1940      H1976   0.990       .  S
O1941      C1943   1.284       .  A
O1942      C1943   1.288       .  A
C1943      C2340   1.489       .  S
O1944     Zr1945   2.436       .  S
O1944      H1973   0.990       .  S
Zr1945     O1948   2.436       .  S
Zr1945     O1949   2.438       .  S
Zr1945     O1950   2.403       .  S
O1946      C1951   1.285       .  A
O1947      H1964   0.990       .  S
O1947      H1979   0.990       .  S
O1948      H1965   0.990       .  S
O1949      H1969   0.990       .  S
O1949      H1978   0.990       .  S
O1950      C1951   1.277       .  A
C1951      C2158   1.482       .  S
O1952      H1971   0.990       .  S
O1952      H1975   0.990       .  S
O1953      H1967   0.990       .  S
O1953      H1974   0.990       .  S
O1954      C1958   1.290       .  A
O1955      C1958   1.283       .  A
O1956      H1966   0.989       .  S
O1957      H1970   0.990       .  S
C1958      C2141   1.494       .  S
Zr1981     O1982   2.442       .  S
Zr1981     O1983   2.460       .  S
Zr1981     O1984   2.461       .  S
Zr1981     O1987   2.467       .  S
Zr1981     O1989   2.384       .  S
Zr1981     O1990   2.383       .  S
Zr1981     O1991   2.419       .  S
Zr1981     O1992   2.404       .  S
O1982      H2038   0.990       .  S
O1982      H2046   0.990       .  S
O1983      C2003   1.287       .  A
O1984      C2005   1.288       .  A
O1985     Zr1995   2.425       .  S
O1985      C2004   1.285       .  A
O1986     Zr1994   2.425       .  S
O1986      C2005   1.283       .  A
O1987      C2004   1.291       .  A
O1988     Zr1996   2.408       .  S
O1988      C2003   1.278       .  A
O1989     Zr1994   2.399       .  S
O1989     Zr1996   2.383       .  S
O1990     Zr1995   2.399       .  S
O1990     Zr1996   2.377       .  S
O1990      H2025   0.966       .  S
O1991     Zr1994   2.407       .  S
O1991     Zr2011   2.383       .  S
O1991      H2028   0.964       .  S
O1992     Zr1995   2.388       .  S
O1992     Zr2011   2.389       .  S
Zr1993     O2018   2.442       .  S
Zr1993     O2012   2.453       .  S
Zr1993     O2020   2.464       .  S
Zr1993     O2008   2.451       .  S
Zr1993     O1999   2.399       .  S
Zr1993     O2000   2.411       .  S
Zr1993     O2001   2.380       .  S
Zr1993     O2002   2.386       .  S
Zr1994     O2013   2.437       .  S
Zr1994     O2006   2.434       .  S
Zr1994     O2007   2.431       .  S
Zr1994     O2000   2.398       .  S
Zr1994     O2001   2.399       .  S
Zr1995     O1997   2.436       .  S
Zr1995     O2019   2.437       .  S
Zr1995     O2021   2.413       .  S
Zr1995     O1999   2.390       .  S
Zr1995     O2002   2.402       .  S
Zr1996     O2022   2.437       .  S
Zr1996     O2023   2.433       .  S
Zr1996     O1998   2.438       .  S
Zr1996     O1999   2.386       .  S
Zr1996     O2000   2.384       .  S
O1997      H2034   0.990       .  S
O1998      H2029   0.989       .  S
O1998      H2043   0.990       .  S
O2000      H2026   0.964       .  S
O2001     Zr2011   2.383       .  S
O2002     Zr2011   2.381       .  S
O2002      H2027   0.966       .  S
C2003      C2113   1.490   1_554  S
C2004      C2309   1.506       .  S
C2005      C2844   1.487       .  S
O2006      H2042   0.990       .  S
O2007      C2009   1.284       .  A
O2008      C2009   1.288       .  A
C2009      C2424   1.488       .  S
O2010     Zr2011   2.435       .  S
O2010      H2039   0.990       .  S
Zr2011     O2014   2.433       .  S
Zr2011     O2015   2.439       .  S
Zr2011     O2016   2.405       .  S
O2012      C2017   1.287       .  A
O2013      H2030   0.990       .  S
O2013      H2045   0.990       .  S
O2014      H2031   0.989       .  S
O2015      H2035   0.990       .  S
O2015      H2044   0.990       .  S
O2016      C2017   1.278       .  A
C2017      C2130   1.493       .  S
O2018      H2037   0.990       .  S
O2018      H2041   0.990       .  S
O2019      H2033   0.990       .  S
O2019      H2040   0.989       .  S
O2020      C2024   1.288       .  A
O2021      C2024   1.280       .  A
O2022      H2032   0.990       .  S
O2023      H2036   0.990       .  S
C2024      C2183   1.480       .  S
Zr2047     O2048   2.443       .  S
Zr2047     O2049   2.453       .  S
Zr2047     O2050   2.456       .  S
Zr2047     O2053   2.458       .  S
Zr2047     O2055   2.387       .  S
Zr2047     O2056   2.387       .  S
Zr2047     O2057   2.419       .  S
Zr2047     O2058   2.405       .  S
O2048      H2104   0.990       .  S
O2048      H2112   0.990       .  S
O2049      C2069   1.286       .  A
O2050      C2071   1.288       .  A
O2051     Zr2061   2.440       .  S
O2051      C2070   1.286       .  A
O2052     Zr2060   2.437       .  S
O2052      C2071   1.286       .  A
O2053      C2070   1.288       .  A
O2054     Zr2062   2.393       .  S
O2054      C2069   1.276       .  A
O2055     Zr2060   2.400       .  S
O2055     Zr2062   2.383       .  S
O2056     Zr2061   2.398       .  S
O2056     Zr2062   2.384       .  S
O2056      H2091   0.966       .  S
O2057     Zr2060   2.407       .  S
O2057     Zr2077   2.380       .  S
O2057      H2094   0.964       .  S
O2058     Zr2061   2.387       .  S
O2058     Zr2077   2.390       .  S
Zr2059     O2084   2.441       .  S
Zr2059     O2078   2.450       .  S
Zr2059     O2086   2.447       .  S
Zr2059     O2074   2.455       .  S
Zr2059     O2065   2.403       .  S
Zr2059     O2066   2.415       .  S
Zr2059     O2067   2.381       .  S
Zr2059     O2068   2.387       .  S
Zr2060     O2079   2.436       .  S
Zr2060     O2072   2.435       .  S
Zr2060     O2073   2.440       .  S
Zr2060     O2066   2.401       .  S
Zr2060     O2067   2.403       .  S
Zr2061     O2063   2.435       .  S
Zr2061     O2085   2.439       .  S
Zr2061     O2087   2.428       .  S
Zr2061     O2065   2.389       .  S
Zr2061     O2068   2.399       .  S
Zr2062     O2088   2.429       .  S
Zr2062     O2089   2.435       .  S
Zr2062     O2064   2.438       .  S
Zr2062     O2065   2.382       .  S
Zr2062     O2066   2.382       .  S
O2063      H2100   0.990       .  S
O2064      H2095   0.990       .  S
O2064      H2109   0.990       .  S
O2066      H2092   0.964       .  S
O2067     Zr2077   2.382       .  S
O2068     Zr2077   2.378       .  S
O2068      H2093   0.966       .  S
C2069      C2127   1.487       .  S
C2070      C2253   1.491       .  S
C2071      C2816   1.491       .  S
O2072      H2108   0.990       .  S
O2073      C2075   1.287       .  A
O2074      C2075   1.288       .  A
C2075      C2396   1.495       .  S
O2076     Zr2077   2.434       .  S
O2076      H2105   0.990       .  S
Zr2077     O2080   2.435       .  S
Zr2077     O2081   2.435       .  S
Zr2077     O2082   2.403       .  S
O2078      C2083   1.285       .  A
O2079      H2096   0.990       .  S
O2079      H2111   0.990       .  S
O2080      H2097   0.990       .  S
O2081      H2101   0.990       .  S
O2081      H2110   0.989       .  S
O2082      C2083   1.277       .  A
C2083      C2116   1.483       .  S
O2084      H2103   0.989       .  S
O2084      H2107   0.990       .  S
O2085      H2099   0.990       .  S
O2085      H2106   0.990       .  S
O2086      C2090   1.286       .  A
O2087      C2090   1.284       .  A
O2088      H2098   0.989       .  S
O2089      H2102   0.990       .  S
C2090      C2144   1.480       .  S
C2113      C2114   1.413       .  A
C2113      C2118   1.418       .  A
C2114      C2115   1.411       .  A
C2114      C2119   1.451       .  S
C2115      C2116   1.412       .  A
C2115      C2122   1.452       .  S
C2116      C2117   1.411       .  A
C2117      C2118   1.414       .  A
C2117      C2120   1.452       .  S
C2118      C2121   1.451       .  S
C2119      N2126   1.157       .  T
C2120      N2125   1.158       .  T
C2121      N2123   1.157       .  T
C2122      N2124   1.157       .  T
C2127      C2128   1.412       .  A
C2127      C2132   1.414       .  A
C2128      C2129   1.414       .  A
C2128      C2133   1.452       .  S
C2129      C2130   1.419       .  A
C2129      C2136   1.450       .  S
C2130      C2131   1.412       .  A
C2131      C2132   1.408       .  A
C2131      C2134   1.449       .  S
C2132      C2135   1.452       .  S
C2133      N2140   1.158       .  T
C2134      N2139   1.156       .  T
C2135      N2137   1.157       .  T
C2136      N2138   1.157       .  T
C2141      C2142   1.420       .  A
C2141      C2146   1.415       .  A
C2142      C2143   1.412       .  A
C2142      C2147   1.450       .  S
C2143      C2144   1.408       .  A
C2143      C2150   1.452       .  S
C2144      C2145   1.410       .  A
C2145      C2146   1.412       .  A
C2145      C2148   1.450       .  S
C2146      C2149   1.450       .  S
C2147      N2154   1.157       .  T
C2148      N2153   1.157       .  T
C2149      N2151   1.157       .  T
C2150      N2152   1.157       .  T
C2155      C2156   1.412       .  A
C2155      C2160   1.412       .  A
C2156      C2157   1.413       .  A
C2156      C2161   1.451       .  S
C2157      C2158   1.415       .  A
C2157      C2164   1.451       .  S
C2158      C2159   1.411       .  A
C2159      C2160   1.408       .  A
C2159      C2162   1.451       .  S
C2160      C2163   1.451       .  S
C2161      N2168   1.158       .  T
C2162      N2167   1.157       .  T
C2163      N2165   1.157       .  T
C2164      N2166   1.158       .  T
C2169      C2170   1.417       .  A
C2169      C2174   1.412       .  A
C2170      C2171   1.416       .  A
C2170      C2175   1.451       .  S
C2171      C2172   1.412       .  A
C2171      C2178   1.451       .  S
C2172      C2173   1.415       .  A
C2173      C2174   1.415       .  A
C2173      C2176   1.450       .  S
C2174      C2177   1.450       .  S
C2175      N2182   1.157       .  T
C2176      N2181   1.157   1_554  T
C2177      N2179   1.157       .  T
C2178      N2180   1.157   1_554  T
C2183      C2184   1.407       .  A
C2183      C2188   1.412       .  A
C2184      C2185   1.410       .  A
C2184      C2189   1.451       .  S
C2185      C2186   1.420       .  A
C2185      C2192   1.451       .  S
C2186      C2187   1.416       .  A
C2187      C2188   1.413       .  A
C2187      C2190   1.451       .  S
C2188      C2191   1.450       .  S
C2189      N2196   1.157       .  T
C2190      N2195   1.157       .  T
C2191      N2193   1.157       .  T
C2192      N2194   1.157       .  T
C2197      C2198   1.416       .  A
C2197      C2202   1.410       .  A
C2198      C2199   1.412       .  A
C2198      C2203   1.450       .  S
C2199      C2200   1.411       .  A
C2199      C2206   1.453       .  S
C2200      C2201   1.414       .  A
C2201      C2202   1.409       .  A
C2201      C2204   1.450       .  S
C2202      C2205   1.451       .  S
C2203      N2210   1.157       .  T
C2204      N2209   1.157       .  T
C2205      N2207   1.157       .  T
C2206      N2208   1.158       .  T
C2211      C2212   1.411       .  A
C2211      C2216   1.416       .  A
C2212      C2213   1.412       .  A
C2212      C2217   1.451       .  S
C2213      C2214   1.414       .  A
C2213      C2220   1.451       .  S
C2214      C2215   1.411       .  A
C2215      C2216   1.413       .  A
C2215      C2218   1.451       .  S
C2216      C2219   1.452       .  S
C2217      N2224   1.157       .  T
C2218      N2223   1.157       .  T
C2219      N2221   1.157       .  T
C2220      N2222   1.157       .  T
C2225      C2226   1.412       .  A
C2225      C2230   1.412       .  A
C2226      C2227   1.413       .  A
C2226      C2231   1.451       .  S
C2227      C2228   1.412       .  A
C2227      C2234   1.451       .  S
C2228      C2229   1.413       .  A
C2229      C2230   1.414       .  A
C2229      C2232   1.450       .  S
C2230      C2233   1.451       .  S
C2231      N2238   1.157       .  T
C2232      N2237   1.157       .  T
C2233      N2235   1.157       .  T
C2234      N2236   1.157       .  T
C2239      C2240   1.412       .  A
C2239      C2244   1.416       .  A
C2240      C2241   1.409       .  A
C2240      C2245   1.452       .  S
C2241      C2242   1.413       .  A
C2241      C2248   1.451       .  S
C2242      C2243   1.410       .  A
C2243      C2244   1.410       .  A
C2243      C2246   1.451       .  S
C2244      C2247   1.451       .  S
C2245      N2252   1.157       .  T
C2246      N2251   1.157       .  T
C2247      N2249   1.157       .  T
C2248      N2250   1.157       .  T
C2253      C2254   1.411       .  A
C2253      C2258   1.413       .  A
C2254      C2255   1.416       .  A
C2254      C2259   1.451       .  S
C2255      C2256   1.418       .  A
C2255      C2262   1.450       .  S
C2256      C2257   1.415       .  A
C2257      C2258   1.415       .  A
C2257      C2260   1.451       .  S
C2258      C2261   1.449       .  S
C2259      N2266   1.157       .  T
C2260      N2265   1.157       .  T
C2261      N2263   1.157       .  T
C2262      N2264   1.157       .  T
C2267      C2268   1.407       .  A
C2267      C2272   1.414       .  A
C2268      C2269   1.412       .  A
C2268      C2273   1.450       .  S
C2269      C2270   1.420       .  A
C2269      C2276   1.451       .  S
C2270      C2271   1.414       .  A
C2271      C2272   1.411       .  A
C2271      C2274   1.451       .  S
C2272      C2275   1.452       .  S
C2273      N2280   1.157       .  T
C2274      N2279   1.157       .  T
C2275      N2277   1.157       .  T
C2276      N2278   1.157       .  T
C2281      C2282   1.415       .  A
C2281      C2286   1.413       .  A
C2282      C2283   1.412       .  A
C2282      C2287   1.451       .  S
C2283      C2284   1.412       .  A
C2283      C2290   1.451       .  S
C2284      C2285   1.413       .  A
C2285      C2286   1.410       .  A
C2285      C2288   1.451       .  S
C2286      C2289   1.453       .  S
C2287      N2294   1.157       .  T
C2288      N2293   1.157       .  T
C2289      N2291   1.158       .  T
C2290      N2292   1.157       .  T
C2295      C2296   1.412       .  A
C2295      C2300   1.421       .  A
C2296      C2297   1.412       .  A
C2296      C2301   1.449       .  S
C2297      C2298   1.417       .  A
C2297      C2304   1.451       .  S
C2298      C2299   1.412       .  A
C2299      C2300   1.416       .  A
C2299      C2302   1.452       .  S
C2300      C2303   1.451       .  S
C2301      N2308   1.157       .  T
C2302      N2307   1.158       .  T
C2303      N2305   1.157       .  T
C2304      N2306   1.157       .  T
C2309      C2310   1.419       .  A
C2309      C2314   1.417       .  A
C2310      C2311   1.419       .  A
C2310      C2315   1.451       .  S
C2311      C2312   1.420       .  A
C2311      C2318   1.450       .  S
C2312      C2313   1.421       .  A
C2313      C2314   1.411       .  A
C2313      C2316   1.453       .  S
C2314      C2317   1.452       .  S
C2315      N2322   1.157       .  T
C2316      N2321   1.157       .  T
C2317      N2319   1.157       .  T
C2318      N2320   1.157       .  T
C2323      C2324   1.412   1_556  A
C2323      C2328   1.415       .  A
C2324      C2325   1.410       .  A
C2324      C2329   1.451       .  S
C2325      C2326   1.413       .  A
C2325      C2332   1.450       .  S
C2326      C2327   1.411   1_554  A
C2327      C2328   1.410       .  A
C2327      C2330   1.452       .  S
C2328      C2331   1.450       .  S
C2329      N2336   1.157       .  T
C2330      N2335   1.157       .  T
C2331      N2333   1.157       .  T
C2332      N2334   1.157       .  T
C2337      C2338   1.414       .  A
C2337      C2342   1.415       .  A
C2338      C2339   1.409       .  A
C2338      C2343   1.452       .  S
C2339      C2340   1.416       .  A
C2339      C2346   1.453       .  S
C2340      C2341   1.414       .  A
C2341      C2342   1.415       .  A
C2341      C2344   1.451       .  S
C2342      C2345   1.451       .  S
C2343      N2350   1.157       .  T
C2344      N2349   1.157       .  T
C2345      N2347   1.157       .  T
C2346      N2348   1.157       .  T
C2351      C2352   1.415       .  A
C2351      C2356   1.416       .  A
C2352      C2353   1.409       .  A
C2352      C2357   1.452       .  S
C2353      C2354   1.415       .  A
C2353      C2360   1.453       .  S
C2354      C2355   1.411       .  A
C2355      C2356   1.413       .  A
C2355      C2358   1.451       .  S
C2356      C2359   1.451       .  S
C2357      N2364   1.157       .  T
C2358      N2363   1.157       .  T
C2359      N2361   1.157       .  T
C2360      N2362   1.157       .  T
C2365      C2366   1.411       .  A
C2365      C2370   1.411       .  A
C2366      C2367   1.412       .  A
C2366      C2371   1.451       .  S
C2367      C2368   1.416       .  A
C2367      C2374   1.451       .  S
C2368      C2369   1.418       .  A
C2369      C2370   1.412       .  A
C2369      C2372   1.451       .  S
C2370      C2373   1.453       .  S
C2371      N2378   1.157       .  T
C2372      N2377   1.157       .  T
C2373      N2375   1.158       .  T
C2374      N2376   1.157       .  T
C2379      C2380   1.412       .  A
C2379      C2384   1.412       .  A
C2380      C2381   1.412       .  A
C2380      C2385   1.451       .  S
C2381      C2382   1.415       .  A
C2381      C2388   1.452       .  S
C2382      C2383   1.417       .  A
C2383      C2384   1.412       .  A
C2383      C2386   1.451       .  S
C2384      C2387   1.453       .  S
C2385      N2392   1.157   1_554  T
C2386      N2391   1.157       .  T
C2387      N2389   1.158   1_554  T
C2388      N2390   1.157       .  T
C2393      C2394   1.417       .  A
C2393      C2398   1.416       .  A
C2394      C2395   1.416       .  A
C2394      C2399   1.450       .  S
C2395      C2396   1.413       .  A
C2395      C2402   1.451       .  S
C2396      C2397   1.417       .  A
C2397      C2398   1.413       .  A
C2397      C2400   1.452       .  S
C2398      C2401   1.452       .  S
C2399      N2406   1.157       .  T
C2400      N2405   1.157       .  T
C2401      N2403   1.157       .  T
C2402      N2404   1.157       .  T
C2407      C2408   1.421       .  A
C2407      C2412   1.420       .  A
C2408      C2409   1.412       .  A
C2408      C2413   1.452       .  S
C2409      C2410   1.416       .  A
C2409      C2416   1.452       .  S
C2410      C2411   1.419       .  A
C2411      C2412   1.420       .  A
C2411      C2414   1.449       .  S
C2412      C2415   1.450       .  S
C2413      N2420   1.157       .  T
C2414      N2419   1.157       .  T
C2415      N2417   1.157       .  T
C2416      N2418   1.157       .  T
C2421      C2422   1.417       .  A
C2421      C2426   1.418       .  A
C2422      C2423   1.415       .  A
C2422      C2427   1.450       .  S
C2423      C2424   1.412       .  A
C2423      C2430   1.451       .  S
C2424      C2425   1.414       .  A
C2425      C2426   1.411       .  A
C2425      C2428   1.453       .  S
C2426      C2429   1.452       .  S
C2427      N2434   1.157       .  T
C2428      N2433   1.157       .  T
C2429      N2431   1.157       .  T
C2430      N2432   1.157       .  T
C2435      C2436   1.417       .  A
C2435      C2440   1.413       .  A
C2436      C2437   1.414       .  A
C2436      C2441   1.450       .  S
C2437      C2438   1.411       .  A
C2437      C2444   1.452       .  S
C2438      C2439   1.414       .  A
C2439      C2440   1.415       .  A
C2439      C2442   1.450       .  S
C2440      C2443   1.450       .  S
C2441      N2448   1.157       .  T
C2442      N2447   1.157       .  T
C2443      N2445   1.157   1_556  T
C2444      N2446   1.158       .  T
C2449      C2450   1.412       .  A
C2449      C2454   1.410       .  A
C2450      C2451   1.412       .  A
C2450      C2455   1.451       .  S
C2451      C2452   1.412       .  A
C2451      C2458   1.451       .  S
C2452      C2453   1.414       .  A
C2453      C2454   1.411       .  A
C2453      C2456   1.451       .  S
C2454      C2457   1.452       .  S
C2455      N2462   1.157       .  T
C2456      N2461   1.157       .  T
C2457      N2459   1.157       .  T
C2458      N2460   1.157       .  T
C2463      C2464   1.419       .  A
C2463      C2468   1.419       .  A
C2464      C2465   1.419       .  A
C2464      C2469   1.449       .  S
C2465      C2466   1.420       .  A
C2465      C2472   1.450       .  S
C2466      C2467   1.416       .  A
C2467      C2468   1.409       .  A
C2467      C2470   1.453       .  S
C2468      C2471   1.452       .  S
C2469      N2476   1.157       .  T
C2470      N2475   1.157       .  T
C2471      N2473   1.157       .  T
C2472      N2474   1.157       .  T
C2477      C2478   1.417       .  A
C2477      C2482   1.418       .  A
C2478      C2479   1.415   1_655  A
C2478      C2483   1.451       .  S
C2479      C2480   1.420       .  A
C2479      C2486   1.451       .  S
C2480      C2481   1.423       .  A
C2481      C2482   1.419   1_455  A
C2481      C2484   1.449       .  S
C2482      C2485   1.450       .  S
C2483      N2490   1.157       .  T
C2484      N2489   1.157       .  T
C2485      N2487   1.157       .  T
C2486      N2488   1.157       .  T
C2491      C2492   1.405       .  A
C2491      C2496   1.415       .  A
C2492      C2493   1.412       .  A
C2492      C2497   1.450       .  S
C2493      C2494   1.421       .  A
C2493      C2500   1.450       .  S
C2494      C2495   1.415       .  A
C2495      C2496   1.415       .  A
C2495      C2498   1.450       .  S
C2496      C2499   1.451       .  S
C2497      N2504   1.157       .  T
C2498      N2503   1.157       .  T
C2499      N2501   1.157       .  T
C2500      N2502   1.157       .  T
C2505      C2506   1.414   1_556  A
C2505      C2510   1.417       .  A
C2506      C2507   1.412   1_655  A
C2506      C2511   1.452       .  S
C2507      C2508   1.419   1_554  A
C2507      C2514   1.452       .  S
C2508      C2509   1.414       .  A
C2509      C2510   1.415   1_455  A
C2509      C2512   1.451       .  S
C2510      C2513   1.451       .  S
C2511      N2518   1.157       .  T
C2512      N2517   1.157       .  T
C2513      N2515   1.157       .  T
C2514      N2516   1.157       .  T
C2519      C2520   1.413       .  A
C2519      C2524   1.417       .  A
C2520      C2521   1.412       .  A
C2520      C2525   1.453       .  S
C2521      C2522   1.419       .  A
C2521      C2528   1.451       .  S
C2522      C2523   1.414       .  A
C2523      C2524   1.414       .  A
C2523      C2526   1.449       .  S
C2524      C2527   1.451       .  S
C2525      N2532   1.158       .  T
C2526      N2531   1.157       .  T
C2527      N2529   1.157       .  T
C2528      N2530   1.157       .  T
C2533      C2534   1.420       .  A
C2533      C2538   1.414       .  A
C2534      C2535   1.414       .  A
C2534      C2539   1.450       .  S
C2535      C2536   1.411       .  A
C2535      C2542   1.453       .  S
C2536      C2537   1.413       .  A
C2537      C2538   1.409       .  A
C2537      C2540   1.453       .  S
C2538      C2541   1.449       .  S
C2539      N2546   1.157       .  T
C2540      N2545   1.157       .  T
C2541      N2543   1.156       .  T
C2542      N2544   1.158       .  T
C2547      C2548   1.402       .  A
C2547      C2552   1.413       .  A
C2548      C2549   1.412       .  A
C2548      C2553   1.452       .  S
C2549      C2550   1.427       .  A
C2549      C2556   1.448       .  S
C2550      C2551   1.417       .  A
C2551      C2552   1.415       .  A
C2551      C2554   1.450       .  S
C2552      C2555   1.449       .  S
C2553      N2560   1.157       .  T
C2554      N2559   1.157       .  T
C2555      N2557   1.156       .  T
C2556      N2558   1.157       .  T
C2561      C2562   1.416   1_556  A
C2561      C2566   1.414       .  A
C2562      C2563   1.413   1_655  A
C2562      C2567   1.451       .  S
C2563      C2564   1.411   1_554  A
C2563      C2570   1.451       .  S
C2564      C2565   1.417       .  A
C2565      C2566   1.412   1_455  A
C2565      C2568   1.452       .  S
C2566      C2569   1.452       .  S
C2567      N2574   1.157       .  T
C2568      N2573   1.157       .  T
C2569      N2571   1.157       .  T
C2570      N2572   1.157       .  T
C2575      C2576   1.410       .  A
C2575      C2580   1.416       .  A
C2576      C2577   1.408       .  A
C2576      C2581   1.453       .  S
C2577      C2578   1.424       .  A
C2577      C2584   1.452       .  S
C2578      C2579   1.421       .  A
C2579      C2580   1.416       .  A
C2579      C2582   1.449       .  S
C2580      C2583   1.452       .  S
C2581      N2588   1.157       .  T
C2582      N2587   1.157       .  T
C2583      N2585   1.157       .  T
C2584      N2586   1.157       .  T
C2589      C2590   1.423       .  A
C2589      C2594   1.427       .  A
C2590      C2591   1.421       .  A
C2590      C2595   1.448       .  S
C2591      C2592   1.416       .  A
C2591      C2598   1.451   1_556  S
C2592      C2593   1.417       .  A
C2593      C2594   1.418       .  A
C2593      C2596   1.453       .  S
C2594      C2597   1.453       .  S
C2595      N2602   1.157       .  T
C2596      N2601   1.157       .  T
C2597      N2599   1.158       .  T
C2598      N2600   1.157       .  T
C2603      C2604   1.412       .  A
C2603      C2608   1.414       .  A
C2604      C2605   1.409   1_655  A
C2604      C2609   1.453       .  S
C2605      C2606   1.417       .  A
C2605      C2612   1.452       .  S
C2606      C2607   1.413       .  A
C2607      C2608   1.411   1_455  A
C2607      C2610   1.451       .  S
C2608      C2611   1.452       .  S
C2609      N2616   1.157       .  T
C2610      N2615   1.157       .  T
C2611      N2613   1.157       .  T
C2612      N2614   1.157       .  T
C2617      C2618   1.410       .  A
C2617      C2622   1.413       .  A
C2618      C2619   1.412       .  A
C2618      C2623   1.451       .  S
C2619      C2620   1.415       .  A
C2619      C2626   1.451       .  S
C2620      C2621   1.411       .  A
C2621      C2622   1.412       .  A
C2621      C2624   1.451       .  S
C2622      C2625   1.451       .  S
C2623      N2630   1.157       .  T
C2624      N2629   1.157       .  T
C2625      N2627   1.157       .  T
C2626      N2628   1.157       .  T
C2631      C2632   1.415       .  A
C2631      C2636   1.413       .  A
C2632      C2633   1.414       .  A
C2632      C2637   1.451       .  S
C2633      C2634   1.413       .  A
C2633      C2640   1.451       .  S
C2634      C2635   1.415       .  A
C2635      C2636   1.414       .  A
C2635      C2638   1.451       .  S
C2636      C2639   1.451       .  S
C2637      N2644   1.157       .  T
C2638      N2643   1.157       .  T
C2639      N2641   1.157       .  T
C2640      N2642   1.157       .  T
C2645      C2646   1.406       .  A
C2645      C2650   1.416       .  A
C2646      C2647   1.412       .  A
C2646      C2651   1.451       .  S
C2647      C2648   1.420       .  A
C2647      C2654   1.451       .  S
C2648      C2649   1.410       .  A
C2649      C2650   1.411       .  A
C2649      C2652   1.451       .  S
C2650      C2653   1.450       .  S
C2651      N2658   1.157       .  T
C2652      N2657   1.157       .  T
C2653      N2655   1.157       .  T
C2654      N2656   1.157       .  T
C2659      C2660   1.414       .  A
C2659      C2664   1.409       .  A
C2660      C2661   1.421       .  A
C2660      C2665   1.453       .  S
C2661      C2662   1.428       .  A
C2661      C2668   1.451       .  S
C2662      C2663   1.429       .  A
C2663      C2664   1.414       .  A
C2663      C2666   1.452       .  S
C2664      C2667   1.453       .  S
C2665      N2672   1.158       .  T
C2666      N2671   1.157       .  T
C2667      N2669   1.157       .  T
C2668      N2670   1.158       .  T
C2673      C2674   1.413       .  A
C2673      C2678   1.416       .  A
C2674      C2675   1.411       .  A
C2674      C2679   1.452       .  S
C2675      C2676   1.419       .  A
C2675      C2682   1.452       .  S
C2676      C2677   1.412       .  A
C2677      C2678   1.413       .  A
C2677      C2680   1.451       .  S
C2678      C2681   1.450       .  S
C2679      N2686   1.157       .  T
C2680      N2685   1.157       .  T
C2681      N2683   1.157       .  T
C2682      N2684   1.157       .  T
C2687      C2688   1.415       .  A
C2687      C2692   1.414       .  A
C2688      C2689   1.415       .  A
C2688      C2693   1.450       .  S
C2689      C2690   1.413       .  A
C2689      C2696   1.450       .  S
C2690      C2691   1.417       .  A
C2691      C2692   1.412       .  A
C2691      C2694   1.452       .  S
C2692      C2695   1.452       .  S
C2693      N2700   1.157       .  T
C2694      N2699   1.157       .  T
C2695      N2697   1.157       .  T
C2696      N2698   1.157       .  T
C2701      C2702   1.416       .  A
C2701      C2706   1.413       .  A
C2702      C2703   1.413       .  A
C2702      C2707   1.451       .  S
C2703      C2704   1.412       .  A
C2703      C2710   1.451       .  S
C2704      C2705   1.416       .  A
C2705      C2706   1.414       .  A
C2705      C2708   1.451       .  S
C2706      C2709   1.452       .  S
C2707      N2714   1.157       .  T
C2708      N2713   1.157       .  T
C2709      N2711   1.158       .  T
C2710      N2712   1.157       .  T
C2715      C2716   1.412       .  A
C2715      C2720   1.412       .  A
C2716      C2717   1.412       .  A
C2716      C2721   1.451       .  S
C2717      C2718   1.411       .  A
C2717      C2724   1.449       .  S
C2718      C2719   1.414       .  A
C2719      C2720   1.413       .  A
C2719      C2722   1.451       .  S
C2720      C2723   1.450       .  S
C2721      N2728   1.157       .  T
C2722      N2727   1.157       .  T
C2723      N2725   1.157       .  T
C2724      N2726   1.157       .  T
C2729      C2730   1.414       .  A
C2729      C2734   1.415       .  A
C2730      C2731   1.412       .  A
C2730      C2735   1.452       .  S
C2731      C2732   1.417       .  A
C2731      C2738   1.453       .  S
C2732      C2733   1.412       .  A
C2733      C2734   1.412       .  A
C2733      C2736   1.450       .  S
C2734      C2737   1.451       .  S
C2735      N2742   1.157       .  T
C2736      N2741   1.157       .  T
C2737      N2739   1.157       .  T
C2738      N2740   1.157       .  T
C2743      C2744   1.426       .  A
C2743      C2748   1.431       .  A
C2744      C2745   1.417       .  A
C2744      C2749   1.447       .  S
C2745      C2746   1.411       .  A
C2745      C2752   1.453       .  S
C2746      C2747   1.410       .  A
C2747      C2748   1.414       .  A
C2747      C2750   1.453       .  S
C2748      C2751   1.453       .  S
C2749      N2756   1.156       .  T
C2750      N2755   1.157       .  T
C2751      N2753   1.157       .  T
C2752      N2754   1.157       .  T
C2757      C2758   1.416       .  A
C2757      C2762   1.412       .  A
C2758      C2759   1.413       .  A
C2758      C2763   1.451       .  S
C2759      C2760   1.412       .  A
C2759      C2766   1.451       .  S
C2760      C2761   1.420       .  A
C2761      C2762   1.412       .  A
C2761      C2764   1.452       .  S
C2762      C2765   1.452       .  S
C2763      N2770   1.157       .  T
C2764      N2769   1.157       .  T
C2765      N2767   1.157       .  T
C2766      N2768   1.157       .  T
C2771      C2772   1.413       .  A
C2771      C2776   1.415       .  A
C2772      C2773   1.411       .  A
C2772      C2777   1.452       .  S
C2773      C2774   1.414       .  A
C2773      C2780   1.451       .  S
C2774      C2775   1.412       .  A
C2775      C2776   1.412       .  A
C2775      C2778   1.452       .  S
C2776      C2779   1.451       .  S
C2777      N2784   1.157       .  T
C2778      N2783   1.158       .  T
C2779      N2781   1.157       .  T
C2780      N2782   1.157       .  T
C2785      C2786   1.415       .  A
C2785      C2790   1.413       .  A
C2786      C2787   1.414       .  A
C2786      C2791   1.451       .  S
C2787      C2788   1.415       .  A
C2787      C2794   1.452       .  S
C2788      C2789   1.415       .  A
C2789      C2790   1.412       .  A
C2789      C2792   1.451       .  S
C2790      C2793   1.453       .  S
C2791      N2798   1.157       .  T
C2792      N2797   1.157       .  T
C2793      N2795   1.157   1_554  T
C2794      N2796   1.158       .  T
C2799      C2800   1.418       .  A
C2799      C2804   1.423       .  A
C2800      C2801   1.416       .  A
C2800      C2805   1.450       .  S
C2801      C2802   1.420       .  A
C2801      C2808   1.450       .  S
C2802      C2803   1.421       .  A
C2803      C2804   1.415       .  A
C2803      C2806   1.454       .  S
C2804      C2807   1.454       .  S
C2805      N2812   1.157       .  T
C2806      N2811   1.158       .  T
C2807      N2809   1.158       .  T
C2808      N2810   1.157       .  T
C2813      C2814   1.413       .  A
C2813      C2818   1.415       .  A
C2814      C2815   1.411       .  A
C2814      C2819   1.453       .  S
C2815      C2816   1.417       .  A
C2815      C2822   1.452       .  S
C2816      C2817   1.413       .  A
C2817      C2818   1.415       .  A
C2817      C2820   1.451       .  S
C2818      C2821   1.450       .  S
C2819      N2826   1.157       .  T
C2820      N2825   1.157       .  T
C2821      N2823   1.157       .  T
C2822      N2824   1.157       .  T
C2827      C2828   1.410       .  A
C2827      C2832   1.422       .  A
C2828      C2829   1.409   1_565  A
C2828      C2833   1.452       .  S
C2829      C2830   1.414       .  A
C2829      C2836   1.450       .  S
C2830      C2831   1.405       .  A
C2831      C2832   1.411   1_545  A
C2831      C2834   1.452       .  S
C2832      C2835   1.451       .  S
C2833      N2840   1.157       .  T
C2834      N2839   1.157       .  T
C2835      N2837   1.157       .  T
C2836      N2838   1.157       .  T
C2841      C2842   1.415       .  A
C2841      C2846   1.413       .  A
C2842      C2843   1.411       .  A
C2842      C2847   1.452       .  S
C2843      C2844   1.415       .  A
C2843      C2850   1.452       .  S
C2844      C2845   1.412       .  A
C2845      C2846   1.413       .  A
C2845      C2848   1.451       .  S
C2846      C2849   1.450       .  S
C2847      N2854   1.157       .  T
C2848      N2853   1.157       .  T
C2849      N2851   1.157       .  T
C2850      N2852   1.157       .  T
C2855      C2856   1.413       .  A
C2855      C2860   1.419       .  A
C2856      C2857   1.412       .  A
C2856      C2861   1.452       .  S
C2857      C2858   1.414       .  A
C2857      C2864   1.451       .  S
C2858      C2859   1.412       .  A
C2859      C2860   1.416       .  A
C2859      C2862   1.452       .  S
C2860      C2863   1.451       .  S
C2861      N2868   1.157   1_556  T
C2862      N2867   1.158       .  T
C2863      N2865   1.157   1_556  T
C2864      N2866   1.157       .  T
C2869      C2870   1.413       .  A
C2869      C2874   1.416       .  A
C2870      C2871   1.413       .  A
C2870      C2875   1.451       .  S
C2871      C2872   1.413       .  A
C2871      C2878   1.451       .  S
C2872      C2873   1.411       .  A
C2873      C2874   1.414       .  A
C2873      C2876   1.452       .  S
C2874      C2877   1.451       .  S
C2875      N2882   1.157       .  T
C2876      N2881   1.157       .  T
C2877      N2879   1.157       .  T
C2878      N2880   1.157       .  T
C2883      C2884   1.422       .  A
C2883      C2888   1.422       .  A
C2884      C2885   1.418   1_565  A
C2884      C2889   1.449       .  S
C2885      C2886   1.415       .  A
C2885      C2892   1.451       .  S
C2886      C2887   1.415       .  A
C2887      C2888   1.411   1_545  A
C2887      C2890   1.453       .  S
C2888      C2891   1.452       .  S
C2889      N2896   1.157       .  T
C2890      N2895   1.157       .  T
C2891      N2893   1.157       .  T
C2892      N2894   1.157       .  T
C2897      C2898   1.416       .  A
C2897      C2902   1.415       .  A
C2898      C2899   1.413       .  A
C2898      C2903   1.451       .  S
C2899      C2900   1.412       .  A
C2899      C2906   1.451       .  S
C2900      C2901   1.416       .  A
C2901      C2902   1.411       .  A
C2901      C2904   1.453       .  S
C2902      C2905   1.452       .  S
C2903      N2910   1.157       .  T
C2904      N2909   1.157       .  T
C2905      N2907   1.157       .  T
C2906      N2908   1.157       .  T
C2911      C2912   1.422       .  A
C2911      C2916   1.425       .  A
C2912      C2913   1.414   1_565  A
C2912      C2917   1.449       .  S
C2913      C2914   1.413       .  A
C2913      C2920   1.451       .  S
C2914      C2915   1.414       .  A
C2915      C2916   1.411   1_545  A
C2915      C2918   1.453       .  S
C2916      C2919   1.453       .  S
C2917      N2924   1.157       .  T
C2918      N2923   1.157       .  T
C2919      N2921   1.158       .  T
C2920      N2922   1.157       .  T
C2925      C2926   1.405       .  A
C2925      C2930   1.413       .  A
C2926      C2927   1.410       .  A
C2926      C2931   1.451       .  S
C2927      C2928   1.423       .  A
C2927      C2934   1.450       .  S
C2928      C2929   1.415       .  A
C2929      C2930   1.412       .  A
C2929      C2932   1.452       .  S
C2930      C2933   1.450       .  S
C2931      N2938   1.157       .  T
C2932      N2937   1.157       .  T
C2933      N2935   1.157       .  T
C2934      N2936   1.157       .  T
C2939      C2940   1.416       .  A
C2939      C2944   1.414       .  A
C2940      C2941   1.412       .  A
C2940      C2945   1.451       .  S
C2941      C2942   1.413       .  A
C2941      C2948   1.452       .  S
C2942      C2943   1.415       .  A
C2943      C2944   1.409       .  A
C2943      C2946   1.453       .  S
C2944      C2947   1.452       .  S
C2945      N2952   1.157       .  T
C2946      N2951   1.157       .  T
C2947      N2949   1.157       .  T
C2948      N2950   1.157       .  T
C2953      C2954   1.412       .  A
C2953      C2958   1.416       .  A
C2954      C2955   1.414       .  A
C2954      C2959   1.453       .  S
C2955      C2956   1.419       .  A
C2955      C2962   1.451       .  S
C2956      C2957   1.414       .  A
C2957      C2958   1.413       .  A
C2957      C2960   1.450       .  S
C2958      C2961   1.451       .  S
C2959      N2966   1.158       .  T
C2960      N2965   1.157       .  T
C2961      N2963   1.157       .  T
C2962      N2964   1.157       .  T
C2967      C2968   1.413       .  A
C2967      C2972   1.416       .  A
C2968      C2969   1.411       .  A
C2968      C2973   1.452       .  S
C2969      C2970   1.413       .  A
C2969      C2976   1.450       .  S
C2970      C2971   1.412       .  A
C2971      C2972   1.411       .  A
C2971      C2974   1.453       .  S
C2972      C2975   1.452       .  S
C2973      N2980   1.157       .  T
C2974      N2979   1.157       .  T
C2975      N2977   1.158       .  T
C2976      N2978   1.157       .  T
C2981      C2982   1.418       .  A
C2981      C2986   1.409   1_554  A
C2982      C2983   1.413   1_565  A
C2982      C2987   1.450       .  S
C2983      C2984   1.407       .  A
C2983      C2990   1.451       .  S
C2984      C2985   1.417   1_554  A
C2985      C2986   1.412   1_545  A
C2985      C2988   1.448       .  S
C2986      C2989   1.451       .  S
C2987      N2994   1.157       .  T
C2988      N2993   1.156       .  T
C2989      N2991   1.157       .  T
C2990      N2992   1.157       .  T
C2995      C2996   1.413       .  A
C2995      C3000   1.415       .  A
C2996      C2997   1.417       .  A
C2996      C3001   1.453       .  S
C2997      C2998   1.431       .  A
C2997      C3004   1.453       .  S
C2998      C2999   1.424       .  A
C2999      C3000   1.420       .  A
C2999      C3002   1.447       .  S
C3000      C3003   1.452       .  S
C3001      N3008   1.157       .  T
C3002      N3007   1.156       .  T
C3003      N3005   1.157       .  T
C3004      N3006   1.158       .  T
C3009      C3010   1.416       .  A
C3009      C3014   1.414       .  A
C3010      C3011   1.410       .  A
C3010      C3015   1.453       .  S
C3011      C3012   1.415       .  A
C3011      C3018   1.453       .  S
C3012      C3013   1.415       .  A
C3013      C3014   1.414       .  A
C3013      C3016   1.451       .  S
C3014      C3017   1.451       .  S
C3015      N3022   1.157       .  T
C3016      N3021   1.157       .  T
C3017      N3019   1.157       .  T
C3018      N3020   1.157       .  T
C3023      C3024   1.414       .  A
C3023      C3028   1.417       .  A
C3024      C3025   1.413       .  A
C3024      C3029   1.451       .  S
C3025      C3026   1.416       .  A
C3025      C3032   1.451       .  S
C3026      C3027   1.416       .  A
C3027      C3028   1.413       .  A
C3027      C3030   1.451       .  S
C3028      C3031   1.452       .  S
C3029      N3036   1.157       .  T
C3030      N3035   1.157       .  T
C3031      N3033   1.157       .  T
C3032      N3034   1.157       .  T
C3037      C3038   1.413       .  A
C3037      C3042   1.417       .  A
C3038      C3039   1.417       .  A
C3038      C3043   1.450       .  S
C3039      C3040   1.418       .  A
C3039      C3046   1.451       .  S
C3040      C3041   1.415       .  A
C3041      C3042   1.412       .  A
C3041      C3044   1.452       .  S
C3042      C3045   1.452       .  S
C3043      N3050   1.157       .  T
C3044      N3049   1.157       .  T
C3045      N3047   1.157       .  T
C3046      N3048   1.157       .  T
C3051      C3052   1.417       .  A
C3051      C3056   1.413       .  A
C3052      C3053   1.411       .  A
C3052      C3057   1.453       .  S
C3053      C3054   1.415       .  A
C3053      C3060   1.452       .  S
C3054      C3055   1.415       .  A
C3055      C3056   1.413       .  A
C3055      C3058   1.451       .  S
C3056      C3059   1.451       .  S
C3057      N3064   1.157       .  T
C3058      N3063   1.157       .  T
C3059      N3061   1.157       .  T
C3060      N3062   1.157       .  T
C3065      C3066   1.422       .  A
C3065      C3070   1.416       .  A
C3066      C3067   1.413       .  A
C3066      C3071   1.451       .  S
C3067      C3068   1.411       .  A
C3067      C3074   1.453       .  S
C3068      C3069   1.414       .  A
C3069      C3070   1.411       .  A
C3069      C3072   1.451       .  S
C3070      C3073   1.451       .  S
C3071      N3078   1.157       .  T
C3072      N3077   1.157       .  T
C3073      N3075   1.157       .  T
C3074      N3076   1.158       .  T
C3079      C3080   1.414       .  A
C3079      C3084   1.412       .  A
C3080      C3081   1.413       .  A
C3080      C3085   1.451       .  S
C3081      C3082   1.411       .  A
C3081      C3088   1.451       .  S
C3082      C3083   1.413       .  A
C3083      C3084   1.412       .  A
C3083      C3086   1.451       .  S
C3084      C3087   1.451       .  S
C3085      N3092   1.157   1_554  T
C3086      N3091   1.157       .  T
C3087      N3089   1.157       .  T
C3088      N3090   1.157       .  T
C3093      C3094   1.414   1_556  A
C3093      C3098   1.414       .  A
C3094      C3095   1.418   1_655  A
C3094      C3099   1.448       .  S
C3095      C3096   1.413   1_554  A
C3095      C3102   1.448       .  S
C3096      C3097   1.408       .  A
C3097      C3098   1.399   1_455  A
C3097      C3100   1.453       .  S
C3098      C3101   1.450       .  S
C3099      N3106   1.157       .  T
C3100      N3105   1.156       .  T
C3101      N3103   1.156       .  T
C3102      N3104   1.157       .  T
C3107      C3108   1.416       .  A
C3107      C3112   1.415       .  A
C3108      C3109   1.413       .  A
C3108      C3113   1.451       .  S
C3109      C3110   1.416       .  A
C3109      C3116   1.452       .  S
C3110      C3111   1.412       .  A
C3111      C3112   1.413       .  A
C3111      C3114   1.450       .  S
C3112      C3115   1.451       .  S
C3113      N3120   1.157       .  T
C3114      N3119   1.157       .  T
C3115      N3117   1.157       .  T
C3116      N3118   1.157       .  T
C3121      C3122   1.406       .  A
C3121      C3126   1.411       .  A
C3122      C3123   1.408       .  A
C3122      C3127   1.453       .  S
C3123      C3124   1.419       .  A
C3123      C3130   1.450       .  S
C3124      C3125   1.412       .  A
C3125      C3126   1.409       .  A
C3125      C3128   1.452       .  S
C3126      C3129   1.448       .  S
C3127      N3134   1.157       .  T
C3128      N3133   1.157       .  T
C3129      N3131   1.156       .  T
C3130      N3132   1.157       .  T
C3135      C3136   1.417       .  A
C3135      C3140   1.418       .  A
C3136      C3137   1.418   1_655  A
C3136      C3141   1.451       .  S
C3137      C3138   1.421       .  A
C3137      C3144   1.451       .  S
C3138      C3139   1.419       .  A
C3139      C3140   1.417   1_455  A
C3139      C3142   1.450       .  S
C3140      C3143   1.448       .  S
C3141      N3148   1.157       .  T
C3142      N3147   1.157       .  T
C3143      N3145   1.157       .  T
C3144      N3146   1.157       .  T
C3149      C3150   1.413       .  A
C3149      C3154   1.414       .  A
C3150      C3151   1.416       .  A
C3150      C3155   1.451       .  S
C3151      C3152   1.416       .  A
C3151      C3158   1.451       .  S
C3152      C3153   1.415       .  A
C3153      C3154   1.411       .  A
C3153      C3156   1.452       .  S
C3154      C3157   1.453       .  S
C3155      N3162   1.157       .  T
C3156      N3161   1.157       .  T
C3157      N3159   1.157       .  T
C3158      N3160   1.157       .  T
C3163      C3164   1.411       .  A
C3163      C3168   1.418       .  A
C3164      C3165   1.416       .  A
C3164      C3169   1.451       .  S
C3165      C3166   1.419       .  A
C3165      C3172   1.450       .  S
C3166      C3167   1.413       .  A
C3167      C3168   1.415       .  A
C3167      C3170   1.452       .  S
C3168      C3171   1.452       .  S
C3169      N3176   1.157       .  T
C3170      N3175   1.158       .  T
C3171      N3173   1.157       .  T
C3172      N3174   1.157       .  T
C3177      C3178   1.412       .  A
C3177      C3182   1.413       .  A
C3178      C3179   1.413       .  A
C3178      C3183   1.452       .  S
C3179      C3180   1.415       .  A
C3179      C3186   1.451       .  S
C3180      C3181   1.412       .  A
C3181      C3182   1.414       .  A
C3181      C3184   1.450       .  S
C3182      C3185   1.451       .  S
C3183      N3190   1.157       .  T
C3184      N3189   1.157       .  T
C3185      N3187   1.157       .  T
C3186      N3188   1.157       .  T
C3191      C3192   1.421       .  A
C3191      C3196   1.419       .  A
C3192      C3193   1.412       .  A
C3192      C3197   1.450       .  S
C3193      C3194   1.407       .  A
C3193      C3200   1.452       .  S
C3194      C3195   1.411       .  A
C3195      C3196   1.416       .  A
C3195      C3198   1.450       .  S
C3196      C3199   1.451       .  S
C3197      N3204   1.157       .  T
C3198      N3203   1.157       .  T
C3199      N3201   1.157       .  T
C3200      N3202   1.157       .  T
C3205      C3206   1.419       .  A
C3205      C3210   1.418       .  A
C3206      C3207   1.414       .  A
C3206      C3211   1.453       .  S
C3207      C3208   1.424       .  A
C3207      C3214   1.453       .  S
C3208      C3209   1.421       .  A
C3209      C3210   1.420       .  A
C3209      C3212   1.449       .  S
C3210      C3213   1.450       .  S
C3211      N3218   1.157       .  T
C3212      N3217   1.157       .  T
C3213      N3215   1.157       .  T
C3214      N3216   1.157       .  T
C3219      C3220   1.415       .  A
C3219      C3224   1.412       .  A
C3220      C3221   1.410   1_655  A
C3220      C3225   1.452       .  S
C3221      C3222   1.414       .  A
C3221      C3228   1.453       .  S
C3222      C3223   1.415       .  A
C3223      C3224   1.413   1_455  A
C3223      C3226   1.450       .  S
C3224      C3227   1.451       .  S
C3225      N3232   1.157       .  T
C3226      N3231   1.157       .  T
C3227      N3229   1.157       .  T
C3228      N3230   1.157       .  T
C3233      C3234   1.409       .  A
C3233      C3238   1.405       .  A
C3234      C3235   1.418   1_565  A
C3234      C3239   1.452       .  S
C3235      C3236   1.430       .  A
C3235      C3242   1.451       .  S
C3236      C3237   1.432       .  A
C3237      C3238   1.415   1_545  A
C3237      C3240   1.452       .  S
C3238      C3241   1.453       .  S
C3239      N3246   1.157       .  T
C3240      N3245   1.157       .  T
C3241      N3243   1.157       .  T
C3242      N3244   1.158       .  T
C3247      C3248   1.417       .  A
C3247      C3252   1.414       .  A
C3248      C3249   1.413       .  A
C3248      C3253   1.453       .  S
C3249      C3250   1.416       .  A
C3249      C3256   1.451       .  S
C3250      C3251   1.416       .  A
C3251      C3252   1.416       .  A
C3251      C3254   1.450       .  S
C3252      C3255   1.451       .  S
C3253      N3260   1.157       .  T
C3254      N3259   1.157       .  T
C3255      N3257   1.157       .  T
C3256      N3258   1.157       .  T
C3261      C3262   1.417   1_556  A
C3261      C3266   1.412       .  A
C3262      C3263   1.414   1_655  A
C3262      C3267   1.453       .  S
C3263      C3264   1.416       .  A
C3263      C3270   1.451       .  S
C3264      C3265   1.416   1_554  A
C3265      C3266   1.413   1_455  A
C3265      C3268   1.450       .  S
C3266      C3269   1.451       .  S
C3267      N3274   1.158       .  T
C3268      N3273   1.157       .  T
C3269      N3271   1.157       .  T
C3270      N3272   1.157       .  T
C3275      C3276   1.410       .  A
C3275      C3280   1.412       .  A
C3276      C3277   1.412       .  A
C3276      C3281   1.451       .  S
C3277      C3278   1.415       .  A
C3277      C3284   1.451       .  S
C3278      C3279   1.413       .  A
C3279      C3280   1.413       .  A
C3279      C3282   1.451       .  S
C3280      C3283   1.451       .  S
C3281      N3288   1.157       .  T
C3282      N3287   1.157       .  T
C3283      N3285   1.157       .  T
C3284      N3286   1.157       .  T
C3289      C3290   1.414       .  A
C3289      C3294   1.420       .  A
C3290      C3291   1.410       .  A
C3290      C3295   1.451       .  S
C3291      C3292   1.417       .  A
C3291      C3298   1.452       .  S
C3292      C3293   1.414       .  A
C3293      C3294   1.416       .  A
C3293      C3296   1.452       .  S
C3294      C3297   1.451       .  S
C3295      N3302   1.157       .  T
C3296      N3301   1.158       .  T
C3297      N3299   1.157       .  T
C3298      N3300   1.157       .  T
C3303      C3304   1.412   1_556  A
C3303      C3308   1.414       .  A
C3304      C3305   1.416   1_545  A
C3304      C3309   1.450       .  S
C3305      C3306   1.417       .  A
C3305      C3312   1.451       .  S
C3306      C3307   1.411   1_554  A
C3307      C3308   1.410   1_565  A
C3307      C3310   1.451       .  S
C3308      C3311   1.449       .  S
C3309      N3316   1.157       .  T
C3310      N3315   1.157       .  T
C3311      N3313   1.156       .  T
C3312      N3314   1.157       .  T
C3317      C3318   1.416       .  A
C3317      C3322   1.414       .  A
C3318      C3319   1.410       .  A
C3318      C3323   1.452       .  S
C3319      C3320   1.414       .  A
C3319      C3326   1.453       .  S
C3320      C3321   1.414       .  A
C3321      C3322   1.413       .  A
C3321      C3324   1.451       .  S
C3322      C3325   1.451       .  S
C3323      N3330   1.157       .  T
C3324      N3329   1.157       .  T
C3325      N3327   1.157       .  T
C3326      N3328   1.157       .  T
C3331      C3332   1.416       .  A
C3331      C3336   1.413       .  A
C3332      C3333   1.413       .  A
C3332      C3337   1.452       .  S
C3333      C3334   1.416       .  A
C3333      C3340   1.453       .  S
C3334      C3335   1.416       .  A
C3335      C3336   1.414       .  A
C3335      C3338   1.451       .  S
C3336      C3339   1.451       .  S
C3337      N3344   1.157       .  T
C3338      N3343   1.157       .  T
C3339      N3341   1.157       .  T
C3340      N3342   1.157       .  T
C3345      C3346   1.404       .  A
C3345      C3350   1.412       .  A
C3346      C3347   1.407   1_565  A
C3346      C3351   1.451       .  S
C3347      C3348   1.419       .  A
C3347      C3354   1.451       .  S
C3348      C3349   1.414       .  A
C3349      C3350   1.412   1_545  A
C3349      C3352   1.450       .  S
C3350      C3353   1.450       .  S
C3351      N3358   1.157       .  T
C3352      N3357   1.157       .  T
C3353      N3355   1.157       .  T
C3354      N3356   1.157       .  T
C3359      C3360   1.416       .  A
C3359      C3364   1.419       .  A
C3360      C3361   1.412       .  A
C3360      C3365   1.451       .  S
C3361      C3362   1.412       .  A
C3361      C3368   1.450       .  S
C3362      C3363   1.409       .  A
C3363      C3364   1.414       .  A
C3363      C3366   1.451       .  S
C3364      C3367   1.450       .  S
C3365      N3372   1.157       .  T
C3366      N3371   1.157       .  T
C3367      N3369   1.157       .  T
C3368      N3370   1.157       .  T
C3373      C3374   1.411       .  A
C3373      C3378   1.415       .  A
C3374      C3375   1.413       .  A
C3374      C3379   1.450       .  S
C3375      C3376   1.415       .  A
C3375      C3382   1.450       .  S
C3376      C3377   1.413       .  A
C3377      C3378   1.410       .  A
C3377      C3380   1.451       .  S
C3378      C3381   1.452       .  S
C3379      N3386   1.157       .  T
C3380      N3385   1.157       .  T
C3381      N3383   1.157       .  T
C3382      N3384   1.157       .  T
C3387      C3388   1.416       .  A
C3387      C3392   1.418       .  A
C3388      C3389   1.417       .  A
C3388      C3393   1.450       .  S
C3389      C3390   1.414       .  A
C3389      C3396   1.450       .  S
C3390      C3391   1.414       .  A
C3391      C3392   1.415       .  A
C3391      C3394   1.452       .  S
C3392      C3395   1.452       .  S
C3393      N3400   1.157       .  T
C3394      N3399   1.157       .  T
C3395      N3397   1.157       .  T
C3396      N3398   1.157       .  T
C3401      C3402   1.417       .  A
C3401      C3406   1.413       .  A
C3402      C3403   1.412       .  A
C3402      C3407   1.451       .  S
C3403      C3404   1.415       .  A
C3403      C3410   1.450       .  S
C3404      C3405   1.422       .  A
C3405      C3406   1.416       .  A
C3405      C3408   1.451       .  S
C3406      C3409   1.452       .  S
C3407      N3414   1.157   1_556  T
C3408      N3413   1.157       .  T
C3409      N3411   1.158   1_556  T
C3410      N3412   1.156       .  T
C3415      C3416   1.411       .  A
C3415      C3420   1.414       .  A
C3416      C3417   1.411       .  A
C3416      C3421   1.452       .  S
C3417      C3418   1.416       .  A
C3417      C3424   1.451       .  S
C3418      C3419   1.412       .  A
C3419      C3420   1.411       .  A
C3419      C3422   1.451       .  S
C3420      C3423   1.451       .  S
C3421      N3428   1.158       .  T
C3422      N3427   1.157       .  T
C3423      N3425   1.157       .  T
C3424      N3426   1.157       .  T
C3429      C3430   1.409       .  A
C3429      C3434   1.413       .  A
C3430      C3431   1.411   1_565  A
C3430      C3435   1.451       .  S
C3431      C3432   1.417       .  A
C3431      C3438   1.450       .  S
C3432      C3433   1.412       .  A
C3433      C3434   1.411   1_545  A
C3433      C3436   1.451       .  S
C3434      C3437   1.449       .  S
C3435      N3442   1.157       .  T
C3436      N3441   1.157       .  T
C3437      N3439   1.157       .  T
C3438      N3440   1.157       .  T
C3443      C3444   1.414       .  A
C3443      C3448   1.420       .  A
C3444      C3445   1.409       .  A
C3444      C3449   1.452       .  S
C3445      C3446   1.411       .  A
C3445      C3452   1.451       .  S
C3446      C3447   1.407       .  A
C3447      C3448   1.410       .  A
C3447      C3450   1.452       .  S
C3448      C3451   1.451       .  S
C3449      N3456   1.157       .  T
C3450      N3455   1.157       .  T
C3451      N3453   1.157       .  T
C3452      N3454   1.157       .  T
