geometry optimzed in LAMMPS
_audit_creation_date              2020-12-01 
_audit_creation_method            'lammps2cif' 
_symmetry_space_group_name_H-M    'P1' 
_symmetry_Int_Tables_number       1 
_symmetry_cell_setting            triclinic 
loop_ 
_symmetry_equiv_pos_as_xyz 
  x,y,z 
_cell_length_a                    31.42337308 
_cell_length_b                    31.170827334494977 
_cell_length_c                    32.36872320877494 
_cell_angle_alpha                 90.10589749808393 
_cell_angle_beta                  90.09321564972659 
_cell_angle_gamma                 90.03177861058101 
loop_ 
_atom_site_label 
_atom_site_type_symbol 
_atom_site_fract_x 
_atom_site_fract_y 
_atom_site_fract_z 
_atom_site_charge 
Fe1        Fe  0.09529532  0.59614401  0.25282613     1.65800
Fe2        Fe  0.20095036  0.61867995  0.25247192     1.73200
Fe3        Fe  0.12726503  0.69992069  0.24884481     1.54400
O4          O  0.07742018  0.69058314  0.20711635    -0.82500
O5          O  0.21705338  0.66083697  0.29913907    -0.80800
O6          O  0.06950693  0.61975754  0.19938653    -0.85000
O7          O  0.05538679  0.63340151  0.28785407    -0.79900
O8          O  0.16732509  0.70973847  0.19907391    -0.81600
O9          O  0.18897204  0.57248443  0.29778543    -0.84400
C10         C  0.05685563  0.66943264  0.30578397     0.96400
C11         C  0.06178411  0.65808788  0.18869451     1.03800
O12         O  0.14140334  0.63838566  0.25138223    -1.13400
O13         O  0.19202735  0.57411960  0.20578672    -0.75800
O14         O  0.12655245  0.55113938  0.21802021    -0.79300
O15         O  0.08596568  0.69663322  0.29870033    -0.80000
C16         C  0.16193436  0.54769536  0.19986841     0.95300
O17         O  0.11842020  0.56990871  0.30626773    -0.77900
O18         O  0.21982798  0.66237214  0.20746058    -0.83100
C19         C  0.20588585  0.69896296  0.30765896     0.97900
C20         C  0.20340854  0.69446163  0.18910407     1.03800
O21         O  0.17485912  0.71746779  0.28992318    -0.78800
C22         C  0.15593445  0.55986357  0.31709587     1.02100
Fe23       Fe  0.39627752  0.89327579  0.00474506     1.65800
Fe24       Fe  0.29260019  0.86440074  0.49902567     1.73200
Fe25       Fe  0.37091918  0.78789697  0.50047188     1.54400
O26         O  0.41294152  0.79803680  0.45206930    -0.82500
O27         O  0.27489068  0.81449318  0.03885810    -0.80800
O28         O  0.43915998  0.86222137  0.46803098    -0.85000
O29         O  0.42335259  0.86667961  0.05645882    -0.79900
O30         O  0.32535401  0.77053835  0.45735026    -0.81600
O31         O  0.29555213  0.90414960  0.04754097    -0.84400
C32         C  0.43313041  0.82829016  0.06515216     0.96400
C33         C  0.44011816  0.82778048  0.44714213     1.03800
O34         O  0.35321926  0.84857445  0.50186096    -1.13400
O35         O  0.30341255  0.91542901  0.45820438    -0.75800
O36         O  0.37368094  0.92474735  0.45528370    -0.79300
O37         O  0.41947684  0.79627830  0.04471880    -0.80000
C38         C  0.33629950  0.93322796  0.44281295     0.95300
O39         O  0.36070037  0.93179094  0.04290767    -0.77900
O40         O  0.28163747  0.82587538  0.44820097    -0.83100
C41         C  0.29294010  0.78305524  0.05687263     0.97900
C42         C  0.29455773  0.78855462  0.43886744     1.03800
O43         O  0.33069864  0.77141555  0.04833180    -0.78800
C44         C  0.32375305  0.93101028  0.05831111     1.02100
Fe45       Fe  0.89890142  0.59972627  0.49305988     1.65800
Fe46       Fe  0.79412501  0.62805418  0.50057103     1.73200
Fe47       Fe  0.87241873  0.70532032  0.00090832     1.54400
O48         O  0.91761638  0.69447458  0.04646067    -0.82500
O49         O  0.77676133  0.67501696  0.45893974    -0.80800
O50         O  0.93595976  0.62566117  0.03986914    -0.85000
O51         O  0.92927559  0.63037559  0.44563417    -0.79900
O52         O  0.82989761  0.72011639  0.04733758    -0.81600
O53         O  0.79811653  0.58608876  0.45114866    -0.84400
C54         C  0.93561329  0.66923207  0.43639112     0.96400
C55         C  0.93966616  0.66211920  0.05694686     1.03800
O56         O  0.85498059  0.64412275  0.99857861    -1.13400
O57         O  0.80259765  0.57999985  0.04377339    -0.75800
O58         O  0.87068549  0.56153165  0.03892851    -0.79300
O59         O  0.91837023  0.70024997  0.45538625    -0.80000
C60         C  0.83402172  0.55712538  0.05474433     0.95300
O61         O  0.86612028  0.56619537  0.44857396    -0.77900
O62         O  0.78007493  0.66957342  0.04808610    -0.83100
C63         C  0.79385532  0.70786936  0.44281460     0.97900
C64         C  0.79594447  0.70424276  0.06184732     1.03800
O65         O  0.82966487  0.72250725  0.45453191    -0.78800
C66         C  0.82820157  0.56450420  0.43545607     1.02100
Fe67       Fe  0.59610924  0.89669685  0.25085845     1.65800
Fe68       Fe  0.70152871  0.87199612  0.24958889     1.73200
Fe69       Fe  0.62611926  0.79222712  0.25292725     1.54400
O70         O  0.57679899  0.80145665  0.29518480    -0.82500
O71         O  0.71644815  0.82956434  0.20286896    -0.80800
O72         O  0.56908677  0.87212629  0.30352211    -0.85000
O73         O  0.55625706  0.86121350  0.21399910    -0.79900
O74         O  0.66664724  0.78129796  0.30212249    -0.81600
O75         O  0.69035618  0.91829397  0.20423818    -0.84400
C76         C  0.55707151  0.82551873  0.19532091     0.96400
C77         C  0.56090825  0.83372763  0.31369085     1.03800
O78         O  0.64145903  0.85355134  0.25117849    -1.13400
O79         O  0.69414809  0.91630254  0.29661326    -0.75800
O80         O  0.62812034  0.93964030  0.28751874    -0.79300
O81         O  0.58455533  0.79692980  0.20331303    -0.80000
C82         C  0.66417977  0.94213371  0.30468699     0.95300
O83         O  0.61977479  0.92428703  0.19824910    -0.77900
O84         O  0.71979147  0.82814827  0.29433936    -0.83100
C85         C  0.70417749  0.79193894  0.19355482     0.97900
C86         C  0.70270876  0.79643663  0.31257271     1.03800
O87         O  0.67271858  0.77434105  0.21121068    -0.78800
C88         C  0.65725271  0.93235811  0.18597740     1.02100
Fe89       Fe  0.08828803  0.39008486  0.50570350     1.65800
Fe90       Fe  0.19300685  0.36294020  0.00176221     1.73200
Fe91       Fe  0.11450561  0.28548332  0.00046574     1.54400
O92         O  0.07220873  0.29037096  0.04912743    -0.82500
O93         O  0.20628801  0.31838799  0.45213273    -0.80800
O94         O  0.05417846  0.35942206  0.05159895    -0.85000
O95         O  0.05108386  0.36369309  0.46042433    -0.79900
O96         O  0.16001598  0.26685458  0.04337226    -0.81600
O97         O  0.18375195  0.40778774  0.45442160    -0.84400
C98         C  0.04457117  0.32665792  0.44556948     0.96400
C99         C  0.05139786  0.32127280  0.06454295     1.03800
O100        O  0.13203960  0.34666561  0.00327833    -1.13400
O101        O  0.18796538  0.40826524  0.04863115    -0.75800
O102        O  0.11882744  0.42137962  0.05628369    -0.79300
O103        O  0.06650065  0.29406525  0.45575397    -0.80000
C104        C  0.15715431  0.42609682  0.06721183     0.95300
O105        O  0.11630658  0.42819264  0.46149849    -0.77900
O106        O  0.20851718  0.31902881  0.04666197    -0.83100
C107        C  0.18979925  0.28459395  0.43711120     0.97900
C108        C  0.19332003  0.28355032  0.05891294     1.03800
O109        O  0.15536994  0.26886695  0.45091860    -0.78800
C110        C  0.15261334  0.43160542  0.44469276     1.02100
Fe111      Fe  0.39409261  0.09533624  0.24306255     1.65800
Fe112      Fe  0.36398024  0.20007010  0.24875107     1.73200
Fe113      Fe  0.28863761  0.11980305  0.24948852     1.54400
O114        O  0.29452130  0.07732555  0.20088306    -0.82500
O115        O  0.31847102  0.21515075  0.29297355    -0.80800
O116        O  0.36180521  0.05559670  0.20314924    -0.85000
O117        O  0.37168838  0.06280758  0.29332701    -0.79900
O118        O  0.26988039  0.16521904  0.20629696    -0.81600
O119        O  0.40770130  0.19259232  0.29610216    -0.84400
C120        C  0.33515469  0.05591458  0.30845772     0.96400
C121        C  0.32454579  0.05360164  0.18853638     1.03800
O122        O  0.34874014  0.13847462  0.24718705    -1.13400
O123        O  0.41202128  0.19421527  0.20450256    -0.75800
O124        O  0.42040255  0.12421563  0.19249298    -0.79300
O125        O  0.30129913  0.07228563  0.29348226    -0.80000
C126        C  0.42790246  0.16315404  0.18419929     0.95300
O127        O  0.43389072  0.12807817  0.28233403    -0.77900
O128        O  0.32198799  0.21365341  0.20160381    -0.83100
C129        C  0.28660912  0.19673561  0.30932623     0.97900
C130        C  0.28658997  0.19822345  0.18977469     1.03800
O131        O  0.27367073  0.16015690  0.29768260    -0.78800
C132        C  0.43505288  0.16325863  0.30186684     1.02100
Fe133      Fe  0.59131754  0.09696228  0.49588653     1.65800
Fe134      Fe  0.61843444  0.20457938  0.99772248     1.73200
Fe135      Fe  0.69625494  0.12693554  0.99972591     1.54400
O136        O  0.68665699  0.07752335  0.04168012    -0.82500
O137        O  0.65749069  0.21709878  0.45131076    -0.80800
O138        O  0.61705357  0.06404977  0.04203300    -0.85000
O139        O  0.62479510  0.06061763  0.45413611    -0.79900
O140        O  0.70824103  0.16688600  0.04914247    -0.81600
O141        O  0.56911251  0.19498287  0.45624486    -0.84400
C142        C  0.66200167  0.06052794  0.43924250     0.96400
C143        C  0.65448580  0.05735812  0.05529594     1.03800
O144        O  0.63544053  0.14338846  0.99735928    -1.13400
O145        O  0.57627141  0.19592209  0.04583617    -0.75800
O146        O  0.55234910  0.12919652  0.03623191    -0.79300
O147        O  0.69171052  0.08425210  0.45255812    -0.80000
C148        C  0.55134629  0.16522697  0.05459957     0.95300
O149        O  0.56251027  0.12472693  0.44624137    -0.77900
O150        O  0.66385883  0.22185887  0.04072249    -0.83100
C151        C  0.69418681  0.20385294  0.44109541     0.97900
C152        C  0.69501699  0.20402354  0.05867743     1.03800
O153        O  0.71292257  0.17308807  0.45945125    -0.78800
C154        C  0.55414319  0.16307361  0.43663207     1.02100
Fe155      Fe  0.89052123  0.39395089  0.25119186     1.65800
Fe156      Fe  0.78475690  0.37121232  0.24859275     1.73200
Fe157      Fe  0.85894343  0.28950777  0.25087766     1.54400
O158        O  0.90326631  0.29403381  0.20368897    -0.82500
O159        O  0.76587525  0.32741034  0.29336431    -0.80800
O160        O  0.92966602  0.35918056  0.21351276    -0.85000
O161        O  0.91671765  0.36722906  0.30292409    -0.79900
O162        O  0.81400083  0.27395387  0.20695072    -0.81600
O163        O  0.79234479  0.41624358  0.29557176    -0.84400
C164        C  0.92264571  0.32870375  0.31400164     0.96400
C165        C  0.93064096  0.32285887  0.19620869     1.03800
O166        O  0.84452676  0.35142665  0.25020196    -1.13400
O167        O  0.79698926  0.41709404  0.20296630    -0.75800
O168        O  0.86763718  0.42381131  0.19959470    -0.79300
O169        O  0.90588944  0.29681994  0.29563183    -0.80000
C170        C  0.83060783  0.43170959  0.18603203     0.95300
O171        O  0.85959438  0.43642762  0.28884806    -0.77900
O172        O  0.76901719  0.32901671  0.20179630    -0.83100
C173        C  0.78141556  0.29362961  0.30945151     0.97900
C174        C  0.78192294  0.29213349  0.19090405     1.03800
O175        O  0.81631336  0.27723431  0.29759185    -0.78800
C176        C  0.82312690  0.44091012  0.30456028     1.02100
C177        C  0.72810154  0.20483036  0.12816260    -0.10000
C178        C  0.71662487  0.22731944  0.09237392     0.06200
C179        C  0.72616241  0.27148953  0.08953774    -0.03800
C180        C  0.74684566  0.29215446  0.12226387    -0.08200
C181        C  0.75879547  0.26947715  0.15780805     0.05300
C182        C  0.74881124  0.22546510  0.16083571    -0.03200
Br183      Br  0.76004075  0.19256689  0.20978452    -0.02900
H184        H  0.72018990  0.17116245  0.13104751     0.09200
H185        H  0.75464140  0.32593124  0.11948729     0.07300
Br186      Br  0.71468239  0.30456709  0.04075406    -0.03400
C187        C  0.71213942  0.27075128  0.40349807    -0.10000
C188        C  0.71609726  0.22602886  0.40681709     0.06200
C189        C  0.74023273  0.20371574  0.37703529    -0.03800
C190        C  0.76111404  0.22645208  0.34581762    -0.08200
C191        C  0.75787488  0.27138447  0.34288534     0.05300
C192        C  0.73257189  0.29348193  0.37200793    -0.03200
Br193      Br  0.72614432  0.35470885  0.37224847    -0.02900
H194        H  0.69353994  0.28832151  0.42604463     0.09200
H195        H  0.77939898  0.20870114  0.32316026     0.07300
Br196      Br  0.74316725  0.14216743  0.37529062    -0.03400
C197        C  0.49830541  0.18655071  0.15788309    -0.10000
C198        C  0.45694729  0.17170268  0.14965945     0.06200
C199        C  0.44629149  0.15820296  0.10948874    -0.03800
C200        C  0.47713940  0.15826653  0.07853398    -0.08200
C201        C  0.51902837  0.17117830  0.08701102     0.05300
C202        C  0.52950478  0.18607860  0.12692529    -0.03200
Br203      Br  0.58687714  0.20067405  0.14199669    -0.02900
H204        H  0.50706099  0.19581258  0.18902947     0.09200
H205        H  0.46869355  0.14691121  0.04792795     0.07300
Br206      Br  0.39040765  0.13758573  0.09598636    -0.03400
C207        C  0.46226006  0.19612710  0.36738444    -0.10000
C208        C  0.46898440  0.16880680  0.33333655     0.06200
C209        C  0.50696191  0.14442907  0.33174482    -0.03800
C210        C  0.53477621  0.14463346  0.36525932    -0.08200
C211        C  0.52662697  0.16963694  0.40032581     0.05300
C212        C  0.49084578  0.19683521  0.40072753    -0.03200
Br213      Br  0.47742932  0.23232023  0.44740324    -0.02900
H214        H  0.43374314  0.21546176  0.36905201     0.09200
H215        H  0.56287770  0.12449223  0.36417984     0.07300
Br216      Br  0.52389536  0.11045337  0.28486028    -0.03400
C217        C  0.03327527  0.33543475  0.13680830    -0.10000
C218        C  0.02357827  0.31386319  0.10010399     0.06200
C219        C  0.98535464  0.29058608  0.09686792    -0.03800
C220        C  0.95612326  0.29141059  0.12959660    -0.08200
C221        C  0.96467046  0.31541945  0.16552065     0.05300
C222        C  0.00459978  0.33603057  0.16954828    -0.03200
Br223      Br  0.02237126  0.36580394  0.21875763    -0.02900
H224        H  0.06292007  0.35295530  0.13956566     0.09200
H225        H  0.92576692  0.27539280  0.12596085     0.07300
Br226      Br  0.97015901  0.26102359  0.04695394    -0.03400
C227        C  0.01427144  0.29321587  0.38190629    -0.10000
C228        C  0.00991717  0.32208865  0.41500527     0.06200
C229        C  0.97317736  0.34818757  0.41712352    -0.03800
C230        C  0.94419048  0.34815102  0.38456071    -0.08200
C231        C  0.95019107  0.32169318  0.35008395     0.05300
C232        C  0.98463499  0.29274303  0.34951860    -0.03200
Br233      Br  0.99504222  0.25509493  0.30367658    -0.02900
H234        H  0.04185529  0.27246980  0.38016863     0.09200
H235        H  0.91707426  0.36960983  0.38579618     0.07300
Br236      Br  0.95980102  0.38402190  0.46380372    -0.03400
C237        C  0.26086136  0.26312205  0.09321666    -0.10000
C238        C  0.21627080  0.26080284  0.09229894     0.06200
C239        C  0.19504253  0.23819289  0.12388579    -0.03800
C240        C  0.21860439  0.21761826  0.15480294    -0.08200
C241        C  0.26331957  0.21986055  0.15572135     0.05300
C242        C  0.28443115  0.24321469  0.12439224    -0.03200
Br243      Br  0.34527672  0.24845007  0.12085081    -0.02900
H244        H  0.27765419  0.28043284  0.06924715     0.09200
H245        H  0.20169824  0.20077756  0.17899561     0.07300
Br246      Br  0.13413123  0.23746859  0.12882158    -0.03400
C247        C  0.21809772  0.21301878  0.34484168    -0.10000
C248        C  0.26240531  0.21911239  0.34237640     0.06200
C249        C  0.28210973  0.24683904  0.37107996    -0.03800
C250        C  0.25761105  0.26802650  0.40083322    -0.08200
C251        C  0.21326630  0.26211325  0.40341769     0.05300
C252        C  0.19349854  0.23413882  0.37473638    -0.03200
Br253      Br  0.13309218  0.22467492  0.37289566    -0.02900
H254        H  0.20225071  0.19219818  0.32281559     0.09200
H255        H  0.27376157  0.28859205  0.42285870     0.07300
Br256      Br  0.34263857  0.25492362  0.37354120    -0.03400
C257        C  0.63375448  0.98713999  0.08457493    -0.10000
C258        C  0.66011801  0.02348664  0.08693683     0.06200
C259        C  0.68977879  0.02653962  0.11970012    -0.03800
C260        C  0.69022586  0.99515747  0.15075404    -0.08200
C261        C  0.66177573  0.96041887  0.14953979     0.05300
C262        C  0.63471636  0.95561346  0.11510511    -0.03200
Br263      Br  0.59923469  0.90595936  0.10752330    -0.02900
H264        H  0.61201866  0.98326672  0.05883434     0.09200
H265        H  0.71138857  0.99904027  0.17691803     0.07300
Br266      Br  0.72800870  0.07414609  0.12577614    -0.03400
C267        C  0.69139170  0.96523822  0.37334306    -0.10000
C268        C  0.67015120  0.97555976  0.33645421     0.06200
C269        C  0.65084635  0.01626092  0.33252030    -0.03800
C270        C  0.65051464  0.04434132  0.36606169    -0.08200
C271        C  0.66961789  0.03293228  0.40349210     0.05300
C272        C  0.69118511  0.99362058  0.40689011    -0.03200
Br273      Br  0.71743584  0.97597901  0.45762624    -0.02900
H274        H  0.70596262  0.93410382  0.37696893     0.09200
H275        H  0.63422344  0.07487356  0.36329598     0.07300
Br276      Br  0.62447162  0.03554557  0.28229383    -0.03400
C277        C  0.79604973  0.49218403  0.14815694    -0.10000
C278        C  0.82733245  0.46005695  0.14955047     0.06200
C279        C  0.85774986  0.45800321  0.11761805    -0.03800
C280        C  0.85823242  0.48927270  0.08690285    -0.08200
C281        C  0.82869263  0.52315103  0.08661215     0.05300
C282        C  0.79640821  0.52364651  0.11713075    -0.03200
Br283      Br  0.75369106  0.56755065  0.12039643    -0.02900
H284        H  0.77238297  0.49404555  0.17240797     0.09200
H285        H  0.88236787  0.48710063  0.06311606     0.07300
Br286      Br  0.89908909  0.41268185  0.11343569    -0.03400
C287        C  0.79497998  0.46833940  0.37172715    -0.10000
C288        C  0.81770135  0.47589959  0.33508334     0.06200
C289        C  0.83910385  0.51550857  0.33019289    -0.03800
C290        C  0.84016773  0.54500572  0.36267835    -0.08200
C291        C  0.81967547  0.53623761  0.40005909     0.05300
C292        C  0.79599150  0.49818220  0.40422363    -0.03200
Br293      Br  0.76852740  0.48374201  0.45522681    -0.02900
H294        H  0.77864467  0.43818111  0.37610036     0.09200
H295        H  0.85812652  0.57446315  0.35918086     0.07300
Br296      Br  0.86769719  0.53138507  0.27999880    -0.03400
C297        C  0.77482619  0.77484641  0.40521074    -0.10000
C298        C  0.77086732  0.73015546  0.40910634     0.06200
C299        C  0.74495076  0.70772490  0.38061721    -0.03800
C300        C  0.72269735  0.73018680  0.35015205    -0.08200
C301        C  0.72629932  0.77489905  0.34640469     0.05300
C302        C  0.75306687  0.79724870  0.37423331    -0.03200
Br303      Br  0.76005675  0.85835368  0.37311387    -0.02900
H304        H  0.79455096  0.79261816  0.42675989     0.09200
H305        H  0.70328969  0.71229888  0.32842080     0.07300
Br306      Br  0.74101838  0.64619647  0.37915546    -0.03400
C307        C  0.75572502  0.79133197  0.13516098    -0.10000
C308        C  0.72754457  0.76825369  0.16050575     0.06200
C309        C  0.72261827  0.72365046  0.15312515    -0.03800
C310        C  0.74560483  0.70376522  0.12138602    -0.08200
C311        C  0.77358156  0.72698531  0.09600394     0.05300
C312        C  0.77818411  0.77155763  0.10311907    -0.03200
Br313      Br  0.81173222  0.80871742  0.06876072    -0.02900
H314        H  0.75974318  0.82559210  0.13953917     0.09200
H315        H  0.74142925  0.66961293  0.11653089     0.07300
Br316      Br  0.68586542  0.68696048  0.18479244    -0.03400
C317        C  0.31394723  0.94840356  0.13193550    -0.10000
C318        C  0.31456768  0.96235656  0.09085176     0.06200
C319        C  0.31392584  0.00661815  0.08217189    -0.03800
C320        C  0.31412008  0.03628335  0.11464849    -0.08200
C321        C  0.31641704  0.02224364  0.15569252     0.05300
C322        C  0.31575579  0.97803557  0.16434408    -0.03200
Br323      Br  0.31990511  0.95680911  0.21981161    -0.02900
H324        H  0.31487893  0.91444187  0.13876169     0.09200
H325        H  0.31484466  0.07028316  0.10781792     0.07300
Br326      Br  0.31497072  0.02777217  0.02650060    -0.03400
C327        C  0.29910820  0.99778317  0.34868098    -0.10000
C328        C  0.33269474  0.02731839  0.34492569     0.06200
C329        C  0.36509321  0.02744475  0.37521605    -0.03800
C330        C  0.36448719  0.99730376  0.40696134    -0.08200
C331        C  0.33216496  0.96625903  0.40985413     0.05300
C332        C  0.29860914  0.96728845  0.38064997    -0.03200
Br333      Br  0.25298799  0.92634315  0.38055392    -0.02900
H334        H  0.27401297  0.99726015  0.32569588     0.09200
H335        H  0.38993309  0.99811625  0.42958928     0.07300
Br336      Br  0.41076001  0.06862741  0.37614195    -0.03400
C337        C  0.50102347  0.79981792  0.09384613    -0.10000
C338        C  0.46216380  0.82110893  0.10019691     0.06200
C339        C  0.45338792  0.83900254  0.13912211    -0.03800
C340        C  0.48390128  0.83724672  0.17032490    -0.08200
C341        C  0.52394914  0.81851189  0.16349164     0.05300
C342        C  0.53214610  0.79871103  0.12502963    -0.03200
Br343      Br  0.58648732  0.77428148  0.11158576    -0.02900
H344        H  0.50817284  0.78631265  0.06380068     0.09200
H345        H  0.47678013  0.85209234  0.19980175     0.07300
Br346      Br  0.40039527  0.86686009  0.15119120    -0.03400
C347        C  0.46373439  0.80409755  0.37701744    -0.10000
C348        C  0.47354518  0.82360563  0.41506975     0.06200
C349        C  0.51421925  0.84230673  0.42043050    -0.03800
C350        C  0.54247547  0.84445330  0.38718910    -0.08200
C351        C  0.53182422  0.82681165  0.34873214     0.05300
C352        C  0.49260326  0.80540821  0.34400651    -0.03200
Br353      Br  0.47570180  0.78072294  0.29215640    -0.02900
H354        H  0.43281465  0.78946325  0.37231260     0.09200
H355        H  0.57300680  0.86008679  0.39135568     0.07300
Br356      Br  0.53392526  0.86387000  0.47276645    -0.03400
C357        C  0.14256537  0.44511334  0.13969374    -0.10000
C358        C  0.16522205  0.45351876  0.10335914     0.06200
C359        C  0.19079135  0.49046864  0.10093924    -0.03800
C360        C  0.19163300  0.51955976  0.13395230    -0.08200
C361        C  0.16677988  0.51260554  0.16938493     0.05300
C362        C  0.14336913  0.47394527  0.17272100    -0.03200
Br363      Br  0.11164423  0.45818961  0.22119564    -0.02900
H364        H  0.12319448  0.41647110  0.14192816     0.09200
H365        H  0.20961921  0.54899113  0.13074470     0.07300
Br366      Br  0.22073413  0.50529795  0.05140103    -0.03400
C367        C  0.13451310  0.50370577  0.41813113    -0.10000
C368        C  0.15829913  0.46583843  0.41346724     0.06200
C369        C  0.18538972  0.46165969  0.37884620    -0.03800
C370        C  0.18641508  0.49414085  0.34891935    -0.08200
C371        C  0.16055547  0.53066679  0.35261824     0.05300
C372        C  0.13543739  0.53587912  0.38826162    -0.03200
Br373      Br  0.10198368  0.58650407  0.39800361    -0.02900
H374        H  0.11452463  0.50816357  0.44504711     0.09200
H375        H  0.20561960  0.48967073  0.32147403     0.07300
Br376      Br  0.21840745  0.41096680  0.36833549    -0.03400
C377        C  0.01221197  0.64828548  0.08315279    -0.10000
C378        C  0.97189568  0.66640737  0.08984419     0.06200
C379        C  0.96266021  0.68509355  0.12852908    -0.03800
C380        C  0.99337882  0.68440006  0.15997917    -0.08200
C381        C  0.03293321  0.66462066  0.15357660     0.05300
C382        C  0.04257957  0.64719424  0.11463448    -0.03200
Br383      Br  0.09682141  0.62140817  0.10320096    -0.02900
H384        H  0.01983201  0.63414378  0.05347080     0.09200
H385        H  0.98556184  0.69727113  0.19012569     0.07300
Br386      Br  0.90730360  0.70734951  0.14152925    -0.01000
C387        C  0.03548433  0.69319017  0.37615785    -0.10000
C388        C  0.02367194  0.67827514  0.33680941     0.06200
C389        C  0.98103003  0.66587518  0.32961784    -0.03800
C390        C  0.95196792  0.66562309  0.36216572    -0.08200
C391        C  0.96450883  0.67794797  0.40193567     0.05300
C392        C  0.00622686  0.69276308  0.40879439    -0.03200
Br393      Br  0.02571488  0.70782566  0.46312811    -0.02900
H394        H  0.06816795  0.70224338  0.38224117     0.09200
H395        H  0.91984304  0.65424649  0.35675940     0.07300
Br396      Br  0.96079525  0.64805499  0.27618762    -0.03400
C397        C  0.20408577  0.73320333  0.12167190    -0.10000
C398        C  0.22708839  0.71527506  0.15469420     0.06200
C399        C  0.27194968  0.71883663  0.15448602    -0.03800
C400        C  0.29250898  0.74062477  0.12230534    -0.08200
C401        C  0.26945506  0.75924603  0.08964347     0.05300
C402        C  0.22469589  0.75448031  0.08920587    -0.03200
Br403      Br  0.18986451  0.77343561  0.04395590    -0.02900
H404        H  0.16977875  0.73008888  0.12074416     0.09200
H405        H  0.32680700  0.74376951  0.12333922     0.07300
Br406      Br  0.30713259  0.69729206  0.19839249    -0.03400
C407        C  0.24324069  0.69977052  0.37531358    -0.10000
C408        C  0.22954721  0.72235789  0.34025513     0.06200
C409        C  0.23840568  0.76668926  0.33745926    -0.03800
C410        C  0.25949424  0.78761633  0.36988599    -0.08200
C411        C  0.27277081  0.76507530  0.40514232     0.05300
C412        C  0.26445262  0.72061808  0.40763995    -0.03200
Br413      Br  0.27820930  0.68705596  0.45557374    -0.02900
H414        H  0.23643063  0.66581715  0.37809876     0.09200
H415        H  0.26621159  0.82157696  0.36721455     0.07300
Br416      Br  0.22524335  0.79982840  0.28912620    -0.03400
Fe417      Fe  0.09492027  0.59389117  0.74994591     1.65800
Fe418      Fe  0.20094168  0.61636391  0.75114047     1.73200
Fe419      Fe  0.12719589  0.69756551  0.74886823     1.54400
O420        O  0.07784862  0.68968845  0.70637039    -0.82500
O421        O  0.21712174  0.65764825  0.79866442    -0.80800
O422        O  0.06941454  0.61915787  0.69701503    -0.85000
O423        O  0.05478887  0.63003979  0.78611787    -0.79900
O424        O  0.16784935  0.70875172  0.69983986    -0.81600
O425        O  0.18841161  0.56946974  0.79577320    -0.84400
C426        C  0.05655428  0.66553869  0.80503932     0.96400
C427        C  0.06210671  0.65779434  0.68711182     1.03800
O428        O  0.14126450  0.63603550  0.74994707    -1.13400
O429        O  0.19239830  0.57262432  0.70353590    -0.75800
O430        O  0.12637330  0.55010674  0.71392760    -0.79300
O431        O  0.08557559  0.69290335  0.79827465    -0.80000
C432        C  0.16211370  0.54673264  0.69641848     0.95300
O433        O  0.11768926  0.56592965  0.80275534    -0.77900
O434        O  0.22031133  0.66107140  0.70702236    -0.83100
C435        C  0.20556495  0.69544880  0.80806343     0.97900
C436        C  0.20395473  0.69375874  0.68952866     1.03800
O437        O  0.17416050  0.71373726  0.79085882    -0.78800
C438        C  0.15509205  0.55638242  0.81437323     1.02100
Fe439      Fe  0.39666546  0.89350306  0.50622458     1.65800
Fe440      Fe  0.29254602  0.86271135  0.99765804     1.73200
Fe441      Fe  0.37178836  0.78703041  0.00083991     1.54400
O442        O  0.41453741  0.79663616  0.95321278    -0.82500
O443        O  0.27460883  0.81552902  0.53950350    -0.80800
O444        O  0.43868067  0.86221307  0.96672418    -0.85000
O445        O  0.42283250  0.86591413  0.55787258    -0.79900
O446        O  0.32716904  0.76864181  0.95708473    -0.81600
O447        O  0.29628293  0.90468740  0.54976897    -0.84400
C448        C  0.43278101  0.82726436  0.56522379     0.96400
C449        C  0.44078491  0.82697052  0.94730548     1.03800
O450        O  0.35338856  0.84764096  0.00102472    -1.13400
O451        O  0.30274391  0.91319613  0.95600042    -0.75800
O452        O  0.37280770  0.92422499  0.95378921    -0.79300
O453        O  0.41942905  0.79597574  0.54362196    -0.80000
C454        C  0.33534752  0.93199887  0.94114310     0.95300
O455        O  0.36137081  0.93232902  0.54469923    -0.77900
O456        O  0.28216754  0.82282735  0.94778186    -0.83100
C457        C  0.29269642  0.78404782  0.55745923     0.97900
C458        C  0.29586806  0.78572715  0.93857069     1.03800
O459        O  0.33037816  0.77228066  0.54859145    -0.78800
C460        C  0.32462423  0.93136375  0.56061317     1.02100
Fe461      Fe  0.89869771  0.59895213  0.99433385     1.65800
Fe462      Fe  0.79390368  0.62790293  0.00018597     1.73200
Fe463      Fe  0.87207640  0.70569709  0.50063046     1.54400
O464        O  0.91617472  0.69502520  0.54697804    -0.82500
O465        O  0.77799403  0.67332686  0.95660608    -0.80800
O466        O  0.93813573  0.62785421  0.53648418    -0.85000
O467        O  0.93201356  0.62984560  0.94903578    -0.79900
O468        O  0.82867016  0.72070125  0.54609114    -0.81600
O469        O  0.79886282  0.58421138  0.95209248    -0.84400
C470        C  0.93675023  0.66828077  0.93764826     0.96400
C471        C  0.94023220  0.66350950  0.55536955     1.03800
O472        O  0.85499815  0.64449243  0.49816681    -1.13400
O473        O  0.80409148  0.57874218  0.54229834    -0.75800
O474        O  0.87313751  0.56314828  0.53962399    -0.79300
O475        O  0.91755695  0.69955297  0.95441887    -0.80000
C476        C  0.83615268  0.55739041  0.55434219     0.95300
O477        O  0.86753137  0.56724912  0.94767453    -0.77900
O478        O  0.78172623  0.66777645  0.55004482    -0.83100
C479        C  0.79449120  0.70730327  0.94216673     0.97900
C480        C  0.79635528  0.70348550  0.56244756     1.03800
O481        O  0.82914527  0.72301190  0.95573235    -0.78800
C482        C  0.82944914  0.56428902  0.93525741     1.02100
Fe483      Fe  0.59440863  0.89373759  0.75050151     1.65800
Fe484      Fe  0.70022815  0.87035051  0.74973472     1.73200
Fe485      Fe  0.62553279  0.78941807  0.75285056     1.54400
O486        O  0.57735586  0.79809779  0.79613392    -0.82500
O487        O  0.71627294  0.82663969  0.70459744    -0.80800
O488        O  0.56732624  0.86870423  0.80264695    -0.85000
O489        O  0.55517133  0.85826440  0.71314137    -0.79900
O490        O  0.66731442  0.77836912  0.80100816    -0.81600
O491        O  0.68880218  0.91482502  0.70310792    -0.84400
C492        C  0.55572579  0.82211364  0.69537220     0.96400
C493        C  0.56065326  0.83036883  0.81387163     1.03800
O494        O  0.64026164  0.85108185  0.75110729    -1.13400
O495        O  0.69274989  0.91680803  0.79489730    -0.75800
O496        O  0.62555627  0.93666797  0.78758734    -0.79300
O497        O  0.58283552  0.79343437  0.70410509    -0.80000
C498        C  0.66203901  0.94163227  0.80326031     0.95300
O499        O  0.61818569  0.92207906  0.69840798    -0.77900
O500        O  0.71820487  0.82821105  0.79594144    -0.83100
C501        C  0.70342798  0.78960969  0.69399896     0.97900
C502        C  0.70224460  0.79508548  0.81274186     1.03800
O503        O  0.67109946  0.77228815  0.71022529    -0.78800
C504        C  0.65558706  0.92955541  0.68560811     1.02100
Fe505      Fe  0.08865170  0.39189317  0.00805864     1.65800
Fe506      Fe  0.19274523  0.36120191  0.49898279     1.73200
Fe507      Fe  0.11423227  0.28357615  0.49901904     1.54400
O508        O  0.07096234  0.28918949  0.54687471    -0.82500
O509        O  0.20704645  0.31989660  0.95512274    -0.80800
O510        O  0.05515025  0.35868905  0.55085172    -0.85000
O511        O  0.05266741  0.36694089  0.96120514    -0.79900
O512        O  0.15882085  0.26619596  0.54309840    -0.81600
O513        O  0.18425115  0.40892999  0.95659099    -0.84400
C514        C  0.04523333  0.32987392  0.94688207     0.96400
C515        C  0.05141127  0.32042598  0.56320099     1.03800
O516        O  0.13174205  0.34487296  0.50099009    -1.13400
O517        O  0.18822114  0.40618765  0.54607492    -0.75800
O518        O  0.11932775  0.42123427  0.55240872    -0.79300
O519        O  0.06594032  0.29680993  0.95808703    -0.80000
C520        C  0.15759726  0.42522345  0.56376470     0.95300
O521        O  0.11759361  0.43102189  0.96514959    -0.77900
O522        O  0.20880785  0.31708118  0.54347201    -0.83100
C523        C  0.18971571  0.28729676  0.93857069     0.97900
C524        C  0.19282604  0.28263540  0.55734379     1.03800
O525        O  0.15467780  0.27213402  0.95142519    -0.78800
C526        C  0.15344304  0.43334113  0.94727999     1.02100
Fe527      Fe  0.39195762  0.09734370  0.74556665     1.65800
Fe528      Fe  0.36222892  0.20206811  0.74858414     1.73200
Fe529      Fe  0.28676181  0.12209192  0.75036508     1.54400
O530        O  0.29314052  0.07989328  0.70133039    -0.82500
O531        O  0.31603828  0.21829903  0.79175376    -0.80800
O532        O  0.35936196  0.05586636  0.70749284    -0.85000
O533        O  0.36983215  0.06697591  0.79708751    -0.79900
O534        O  0.26785676  0.16772858  0.70738480    -0.81600
O535        O  0.40514540  0.19562279  0.79678570    -0.84400
C536        C  0.33289122  0.05882120  0.81061724     0.96400
C537        C  0.32285293  0.05464888  0.69108641     1.03800
O538        O  0.34677941  0.14061114  0.74833850    -1.13400
O539        O  0.41082834  0.19463368  0.70504411    -0.75800
O540        O  0.41744012  0.12430510  0.69372872    -0.79300
O541        O  0.29919613  0.07403671  0.79414418    -0.80000
C542        C  0.42573562  0.16294050  0.68489086     0.95300
O543        O  0.43236873  0.13149145  0.78321210    -0.77900
O544        O  0.32108777  0.21463000  0.70058857    -0.83100
C545        C  0.28472543  0.19987302  0.80909397     0.97900
C546        C  0.28514547  0.19977630  0.68974387     1.03800
O547        O  0.27222848  0.16265777  0.79872336    -0.78800
C548        C  0.43306232  0.16683934  0.80250352     1.02100
Fe549      Fe  0.59140554  0.09874348  0.99411996     1.65800
Fe550      Fe  0.61754657  0.20287771  0.49959037     1.73200
Fe551      Fe  0.69583542  0.12600131  0.50178391     1.54400
O552        O  0.68609831  0.07630122  0.54353317    -0.82500
O553        O  0.65895490  0.21876317  0.94992186    -0.80800
O554        O  0.61628142  0.06357183  0.54450737    -0.85000
O555        O  0.62408115  0.06339116  0.95109333    -0.79900
O556        O  0.70739749  0.16581406  0.55141995    -0.81600
O557        O  0.57030471  0.19752560  0.95415934    -0.84400
C558        C  0.66134280  0.06257430  0.93627711     0.96400
C559        C  0.65374736  0.05646986  0.55732033     1.03800
O560        O  0.63500944  0.14190217  0.49927041    -1.13400
O561        O  0.57588193  0.19379423  0.54809707    -0.75800
O562        O  0.55120802  0.12767501  0.53686500    -0.79300
O563        O  0.69165223  0.08508230  0.95038176    -0.80000
C564        C  0.55043149  0.16326772  0.55600036     0.95300
O565        O  0.56142683  0.12734990  0.94525267    -0.77900
O566        O  0.66339215  0.22099484  0.54223952    -0.83100
C567        C  0.69552734  0.20514776  0.93976656     0.97900
C568        C  0.69436726  0.20310195  0.56054758     1.03800
O569        O  0.71366647  0.17382339  0.95767902    -0.78800
C570        C  0.55398071  0.16583088  0.93533984     1.02100
Fe571      Fe  0.89186502  0.39482164  0.74983099     1.65800
Fe572      Fe  0.78633771  0.37198269  0.74782814     1.73200
Fe573      Fe  0.86061040  0.29070458  0.75092583     1.54400
O574        O  0.90350171  0.29483117  0.70259715    -0.82500
O575        O  0.76734021  0.32782787  0.79222440    -0.80800
O576        O  0.93190842  0.35886457  0.71385365    -0.85000
O577        O  0.91712591  0.36978941  0.80270342    -0.79900
O578        O  0.81421412  0.27390683  0.70831938    -0.81600
O579        O  0.79394903  0.41640833  0.79522669    -0.84400
C580        C  0.92438802  0.33142196  0.81353722     0.96400
C581        C  0.93188418  0.32285144  0.69586548     1.03800
O582        O  0.84601401  0.35234916  0.74948142    -1.13400
O583        O  0.79872877  0.41832601  0.70271655    -0.75800
O584        O  0.86944425  0.42260183  0.69704597    -0.79300
O585        O  0.90882887  0.29917258  0.79464077    -0.80000
C586        C  0.83224612  0.43157997  0.68458961     0.95300
O587        O  0.86020317  0.43849502  0.78581136    -0.77900
O588        O  0.77104096  0.33016437  0.70057155    -0.83100
C589        C  0.78384329  0.29520911  0.80958410     0.97900
C590        C  0.78293848  0.29252240  0.69110521     1.03800
O591        O  0.81942956  0.27962057  0.79880488    -0.78800
C592        C  0.82423670  0.44216612  0.80280708     1.02100
C593        C  0.72298825  0.20632953  0.63197204    -0.10000
C594        C  0.71629320  0.22665993  0.59389210     0.06200
C595        C  0.73127282  0.26888981  0.58816688    -0.03800
C596        C  0.75240467  0.29002798  0.62039948    -0.08200
C597        C  0.75950184  0.26953514  0.65833727     0.05300
C598        C  0.74417054  0.22744865  0.66418337    -0.03200
Br599      Br  0.74882651  0.19845640  0.71628348    -0.02900
H600        H  0.71107763  0.17413172  0.63688403     0.09200
H601        H  0.76430914  0.32227096  0.61547562     0.07300
Br602      Br  0.72664443  0.29788978  0.53605505    -0.03400
C603        C  0.71400376  0.27223465  0.90290513    -0.10000
C604        C  0.71808231  0.22750393  0.90611736     0.06200
C605        C  0.74325770  0.20538225  0.87701623    -0.03800
C606        C  0.76432392  0.22824738  0.84611154    -0.08200
C607        C  0.76052901  0.27307388  0.84301366     0.05300
C608        C  0.73490534  0.29509591  0.87184477    -0.03200
Br609      Br  0.72893606  0.35634697  0.87229201    -0.02900
H610        H  0.69497329  0.28968997  0.92519416     0.09200
H611        H  0.78320475  0.21066468  0.82379365     0.07300
Br612      Br  0.74781982  0.14390929  0.87577516    -0.03400
C613        C  0.49579625  0.18659116  0.65824653    -0.10000
C614        C  0.45494824  0.17031975  0.65024290     0.06200
C615        C  0.44522398  0.15441593  0.61063797    -0.03800
C616        C  0.47635719  0.15423223  0.57995175    -0.08200
C617        C  0.51775715  0.16887324  0.58821526     0.05300
C618        C  0.52741994  0.18541022  0.62774322    -0.03200
Br619      Br  0.58436075  0.20101625  0.64336873    -0.02900
H620        H  0.50394558  0.19741195  0.68908936     0.09200
H621        H  0.46852171  0.14137082  0.54974474     0.07300
Br622      Br  0.39035829  0.13085911  0.59752133    -0.03400
C623        C  0.45924179  0.19741213  0.86939891    -0.10000
C624        C  0.46720119  0.17311616  0.83356541     0.06200
C625        C  0.50665089  0.15156558  0.82986476    -0.03800
C626        C  0.53502141  0.15121105  0.86298207    -0.08200
C627        C  0.52580228  0.17303466  0.89968780     0.05300
C628        C  0.48829470  0.19760431  0.90236896    -0.03200
Br629      Br  0.47342490  0.22821370  0.95174311    -0.02900
H630        H  0.42939456  0.21440150  0.87274972     0.09200
H631        H  0.56434755  0.13308353  0.86031492     0.07300
Br632      Br  0.52445076  0.12233875  0.78042370    -0.03400
C633        C  0.03430142  0.33419929  0.63586596    -0.10000
C634        C  0.02388858  0.31315826  0.59903681     0.06200
C635        C  0.98540410  0.29028397  0.59607942    -0.03800
C636        C  0.95650245  0.29131285  0.62905512    -0.08200
C637        C  0.96570641  0.31492715  0.66506314     0.05300
C638        C  0.00603766  0.33474021  0.66896889    -0.03200
Br639      Br  0.02497301  0.36303446  0.71857382    -0.02900
H640        H  0.06424676  0.35121118  0.63850525     0.09200
H641        H  0.92589724  0.27575258  0.62556136     0.07300
Br642      Br  0.96939244  0.26094057  0.54629088    -0.03400
C643        C  0.01461079  0.29557481  0.88367080    -0.10000
C644        C  0.01099497  0.32582058  0.91571303     0.06200
C645        C  0.97535791  0.35350929  0.91628480    -0.03800
C646        C  0.94677403  0.35329104  0.88336296    -0.08200
C647        C  0.95196258  0.32516789  0.84993593     0.05300
C648        C  0.98534584  0.29493063  0.85091953    -0.03200
Br649      Br  0.99485967  0.25478526  0.80690326    -0.02900
H650        H  0.04131516  0.27362498  0.88310444     0.09200
H651        H  0.92046393  0.37578029  0.88360921     0.07300
Br652      Br  0.96269983  0.39164779  0.96145610    -0.03400
C653        C  0.26010988  0.25932821  0.59010192    -0.10000
C654        C  0.21553713  0.26081695  0.59126945     0.06200
C655        C  0.19409611  0.24312325  0.62547556    -0.03800
C656        C  0.21732393  0.22278961  0.65675856    -0.08200
C657        C  0.26202036  0.22096304  0.65546999     0.05300
C658        C  0.28343880  0.24004074  0.62177703    -0.03200
Br659      Br  0.34427394  0.24015576  0.61594024    -0.02900
H660        H  0.27699510  0.27321396  0.56420141     0.09200
H661        H  0.20039083  0.20954790  0.68293086     0.07300
Br662      Br  0.13385080  0.24960929  0.63328615    -0.03400
C663        C  0.21676470  0.21613326  0.84558927    -0.10000
C664        C  0.26086304  0.22290939  0.84199212     0.06200
C665        C  0.28072677  0.25176561  0.86958478    -0.03800
C666        C  0.25669793  0.27263422  0.89991796    -0.08200
C667        C  0.21263065  0.26559319  0.90399200     0.05300
C668        C  0.19258011  0.23719212  0.87583027    -0.03200
Br669      Br  0.13227920  0.22678873  0.87513154    -0.02900
H670        H  0.20074237  0.19471252  0.82422655     0.09200
H671        H  0.27307240  0.29386320  0.92118643     0.07300
Br672      Br  0.34098215  0.26210252  0.86971226    -0.03400
C673        C  0.63221576  0.98622843  0.58537701    -0.10000
C674        C  0.65903156  0.02219734  0.58837292     0.06200
C675        C  0.68838171  0.02470346  0.62133419    -0.03800
C676        C  0.68878127  0.99257001  0.65158433    -0.08200
C677        C  0.66004975  0.95808788  0.64969153     0.05300
C678        C  0.63252113  0.95437718  0.61551296    -0.03200
Br679      Br  0.59485281  0.90633973  0.60808213    -0.02900
H680        H  0.61036234  0.98310968  0.55963699     0.09200
H681        H  0.70988689  0.99583149  0.67787356     0.07300
Br682      Br  0.72549003  0.07296960  0.62911806    -0.03400
C683        C  0.69716585  0.97254645  0.86591562    -0.10000
C684        C  0.66769150  0.97692896  0.83344943     0.06200
C685        C  0.64124120  0.01362167  0.83255319    -0.03800
C686        C  0.64118491  0.04192522  0.86587221    -0.08200
C687        C  0.66808421  0.03550939  0.89976158     0.05300
C688        C  0.69758048  0.00159708  0.89901629    -0.03200
Br689      Br  0.73608424  0.99140205  0.94395572    -0.02900
H690        H  0.71849958  0.94543568  0.86661481     0.09200
H691        H  0.61937645  0.06888482  0.86567033     0.07300
Br692      Br  0.60511440  0.02797835  0.78660512    -0.03400
C693        C  0.79922089  0.49376922  0.64852125    -0.10000
C694        C  0.82864888  0.45992030  0.64825242     0.06200
C695        C  0.85743360  0.45640378  0.61504487    -0.03800
C696        C  0.85849042  0.48807291  0.58468822    -0.08200
C697        C  0.83083900  0.52345996  0.58603099     0.05300
C698        C  0.79998887  0.52544306  0.61779730    -0.03200
Br699      Br  0.76032143  0.57192350  0.62324166    -0.02900
H700        H  0.77689641  0.49679318  0.67384519     0.09200
H701        H  0.88136332  0.48500102  0.55983302     0.07300
Br702      Br  0.89541114  0.40844882  0.60877451    -0.03400
C703        C  0.79491756  0.47002234  0.86940766    -0.10000
C704        C  0.81899026  0.47713775  0.83348151     0.06200
C705        C  0.84163003  0.51618198  0.82956844    -0.03800
C706        C  0.84308298  0.54502056  0.86259418    -0.08200
C707        C  0.82127609  0.53651329  0.89935082     0.05300
C708        C  0.79586372  0.49947023  0.90223009    -0.03200
Br709      Br  0.76555350  0.48576797  0.95188641    -0.02900
H710        H  0.77730542  0.44048543  0.87297126     0.09200
H711        H  0.86203411  0.57393878  0.85987587     0.07300
Br712      Br  0.87089368  0.53251274  0.77985951    -0.03400
C713        C  0.77033500  0.77462235  0.90813928    -0.10000
C714        C  0.77198919  0.72961373  0.90829330     0.06200
C715        C  0.75130532  0.70668630  0.87640229    -0.03800
C716        C  0.72830721  0.72874443  0.84619653    -0.08200
C717        C  0.72611424  0.77369383  0.84629446     0.05300
C718        C  0.74770983  0.79671829  0.87753853    -0.03200
Br719      Br  0.74540108  0.85799366  0.88166336    -0.02900
H720        H  0.78594421  0.79269332  0.93246058     0.09200
H721        H  0.71289797  0.71062331  0.82178579     0.07300
Br722      Br  0.75591882  0.64552756  0.87038856    -0.03400
C723        C  0.75808153  0.78894656  0.63853479    -0.10000
C724        C  0.72729188  0.76628348  0.66120300     0.06200
C725        C  0.72046566  0.72243704  0.65159544    -0.03800
C726        C  0.74391636  0.70295267  0.62006103    -0.08200
C727        C  0.77426561  0.72581664  0.59700914     0.05300
C728        C  0.78118235  0.76959436  0.60674690    -0.03200
Br729      Br  0.81950043  0.80657608  0.57718796    -0.02900
H730        H  0.76385791  0.82259527  0.64491601     0.09200
H731        H  0.73794395  0.66943432  0.61337613     0.07300
Br732      Br  0.68026830  0.68617266  0.67961536    -0.03400
C733        C  0.31824081  0.94861997  0.63476569    -0.10000
C734        C  0.31565593  0.96233875  0.59367682     0.06200
C735        C  0.31100409  0.00635335  0.58506599    -0.03800
C736        C  0.31018052  0.03611573  0.61754217    -0.08200
C737        C  0.31555968  0.02254685  0.65852039     0.05300
C738        C  0.31911401  0.97842308  0.66709515    -0.03200
Br739      Br  0.32707953  0.95759357  0.72234190    -0.02900
H740        H  0.32191083  0.91488533  0.64155793     0.09200
H741        H  0.30782610  0.07001183  0.61063986     0.07300
Br742      Br  0.30783579  0.02714736  0.52935996    -0.03400
C743        C  0.29847400  0.99743128  0.84748237    -0.10000
C744        C  0.32985201  0.02957191  0.84655146     0.06200
C745        C  0.36049406  0.03089947  0.87847414    -0.03800
C746        C  0.36063758  0.99936567  0.90899512    -0.08200
C747        C  0.33066316  0.96585631  0.90905379     0.05300
C748        C  0.29866234  0.96564006  0.87827260    -0.03200
Br749      Br  0.25661594  0.92119547  0.87437541    -0.02900
H750        H  0.27486930  0.99585086  0.82309524     0.09200
H751        H  0.38473604  0.00105635  0.93293549     0.07300
Br752      Br  0.40262836  0.07552766  0.88298385    -0.03400
C753        C  0.50133475  0.79960227  0.59278278    -0.10000
C754        C  0.46161982  0.81881369  0.60004627     0.06200
C755        C  0.45159556  0.83337303  0.63993971    -0.03800
C756        C  0.48196858  0.83108290  0.67124636    -0.08200
C757        C  0.52282261  0.81468406  0.66357439     0.05300
C758        C  0.53211120  0.79759698  0.62419425    -0.03200
Br759      Br  0.58739549  0.77585888  0.61019487    -0.02900
H760        H  0.50930280  0.78846206  0.56204392     0.09200
H761        H  0.47414404  0.84377095  0.70147796     0.07300
Br762      Br  0.39701832  0.85718786  0.65313290    -0.03400
C763        C  0.46577142  0.79940587  0.87921044    -0.10000
C764        C  0.47441323  0.82239357  0.91568728     0.06200
C765        C  0.51391121  0.84382660  0.91967870    -0.03800
C766        C  0.54207697  0.84480656  0.88642884    -0.08200
C767        C  0.53241275  0.82372434  0.84938422     0.05300
C768        C  0.49447744  0.79990090  0.84614089    -0.03200
Br769      Br  0.47867286  0.77113801  0.79593399    -0.02900
H770        H  0.43571248  0.78275639  0.87558793     0.09200
H771        H  0.57162147  0.86254454  0.88934162     0.07300
Br772      Br  0.53210220  0.87145613  0.96988327    -0.03400
C773        C  0.14415104  0.44395586  0.63636898    -0.10000
C774        C  0.16575794  0.45294979  0.59960624     0.06200
C775        C  0.19015585  0.49064344  0.59654301    -0.03800
C776        C  0.19095941  0.51981366  0.62954451    -0.08200
C777        C  0.16721555  0.51207160  0.66555134     0.05300
C778        C  0.14493151  0.47281257  0.66934255    -0.03200
Br779      Br  0.11480084  0.45629581  0.71851151    -0.02900
H780        H  0.12561143  0.41479291  0.63900620     0.09200
H781        H  0.20801160  0.54976347  0.62600053     0.07300
Br782      Br  0.21859023  0.50594043  0.54629169    -0.03400
C783        C  0.13426996  0.50398937  0.91760571    -0.10000
C784        C  0.15868855  0.46634007  0.91465285     0.06200
C785        C  0.18534267  0.46071574  0.87983782    -0.03800
C786        C  0.18556569  0.49161868  0.84834598    -0.08200
C787        C  0.15934074  0.52798646  0.85060327     0.05300
C788        C  0.13437902  0.53454857  0.88616110    -0.03200
Br789      Br  0.10026457  0.58509248  0.89383220    -0.02900
H790        H  0.11440293  0.50953682  0.94441809     0.09200
H791        H  0.20467642  0.48612145  0.82101172     0.07300
Br792      Br  0.21910588  0.41010719  0.87128301    -0.03400
C793        C  0.01350705  0.65153396  0.58090400    -0.10000
C794        C  0.97252443  0.66781046  0.58824024     0.06200
C795        C  0.96268726  0.68467967  0.62757293    -0.03800
C796        C  0.99330335  0.68356338  0.65907910    -0.08200
C797        C  0.03347919  0.66541783  0.65203360     0.05300
C798        C  0.04389353  0.65028571  0.61240291    -0.03200
Br799      Br  0.09921887  0.62744998  0.60014125    -0.02900
H800        H  0.02165379  0.63895216  0.55071205     0.09200
H801        H  0.98496933  0.69475662  0.68971302     0.07300
Br802      Br  0.90676520  0.70497532  0.64131332    -0.01000
C803        C  0.03684887  0.68814283  0.87622484    -0.10000
C804        C  0.02403189  0.67379570  0.83695194     0.06200
C805        C  0.98100484  0.66240199  0.83043826    -0.03800
C806        C  0.95227076  0.66366664  0.86329747    -0.08200
C807        C  0.96562961  0.67588938  0.90287519     0.05300
C808        C  0.00809594  0.68856455  0.90929123    -0.03200
Br809      Br  0.02907448  0.70191896  0.96350833    -0.02900
H810        H  0.06987811  0.69616287  0.88187751     0.09200
H811        H  0.91972385  0.65334925  0.85832965     0.07300
Br812      Br  0.95968690  0.64402875  0.77759196    -0.03400
C813        C  0.20425383  0.73402440  0.62295793    -0.10000
C814        C  0.22749490  0.71555623  0.65553181     0.06200
C815        C  0.27229252  0.71973391  0.65535203    -0.03800
C816        C  0.29264150  0.74162569  0.62304325    -0.08200
C817        C  0.26936765  0.76035759  0.59054008     0.05300
C818        C  0.22453423  0.75602285  0.59073697    -0.03200
Br819      Br  0.18884070  0.77717823  0.54706805    -0.02900
H820        H  0.16993672  0.73095674  0.62227817     0.09200
H821        H  0.32692806  0.74492515  0.62394413     0.07300
Br822      Br  0.30744092  0.69943235  0.69981235    -0.03400
C823        C  0.24966857  0.69565046  0.87217047    -0.10000
C824        C  0.22947705  0.71897590  0.84062491     0.06200
C825        C  0.23261211  0.76425240  0.84107524    -0.03800
C826        C  0.25453250  0.78494067  0.87302620    -0.08200
C827        C  0.27425734  0.76171396  0.90485686     0.05300
C828        C  0.27173631  0.71638725  0.90410480    -0.03200
Br829      Br  0.29497927  0.68064084  0.94687449    -0.02900
H830        H  0.24749588  0.66094516  0.87257270     0.09200
H831        H  0.25657761  0.81962582  0.87265715     0.07300
Br832      Br  0.21006266  0.80013720  0.79805450    -0.03400
loop_ 
_geom_bond_atom_site_label_1 
_geom_bond_atom_site_label_2 
_geom_bond_distance 
_geom_bond_site_symmetry_2 
_ccdc_geom_bond_type 
Fe1          O17   2.047       .  S
Fe1           O7   2.051       .  S
Fe1          O14   2.050       .  S
Fe1           O6   2.047       .  S
Fe1          O12   1.958       .  S
Fe2           O5   2.063       .  S
Fe2           O9   2.092       .  S
Fe2          O13   2.069       .  S
Fe2          O18   2.083       .  S
Fe2          O12   1.970       .  S
Fe3          O21   2.072       .  S
Fe3           O8   2.069       .  S
Fe3          O15   2.075       .  S
Fe3           O4   2.087       .  S
Fe3          O12   1.971       .  S
O4           C11   1.272       .  A
O5           C19   1.269       .  A
O6           C11   1.268       .  A
O7           C10   1.264       .  A
O8           C20   1.272       .  A
O9           C22   1.275       .  A
C10          O15   1.268       .  A
C10         C388   1.475       .  S
C11         C381   1.467       .  S
O13          C16   1.268       .  A
O14          C16   1.263       .  A
C16         C361   1.480       .  S
O17          C22   1.269       .  A
O18          C20   1.273       .  A
C19          O21   1.270       .  A
C19         C408   1.480       .  S
C20         C398   1.490       .  S
C22         C371   1.475       .  S
Fe23         O39   2.054       .  S
Fe23         O29   2.053       .  S
Fe23        O452   2.049   1_554  S
Fe23        O444   2.057   1_554  S
Fe23        O450   1.962       .  S
Fe24         O35   2.098       .  S
Fe24         O40   2.063       .  S
Fe24        O443   2.089       .  S
Fe24        O447   2.069       .  S
Fe24         O34   1.970       .  S
Fe25         O30   2.069       .  S
Fe25         O26   2.075       .  S
Fe25        O459   2.072       .  S
Fe25        O453   2.081       .  S
Fe25         O34   1.972       .  S
O26          C33   1.271       .  A
O27        Fe440   2.087   1_554  S
O27          C41   1.274       .  A
O28        Fe439   2.065       .  S
O28          C33   1.268       .  A
O29          C32   1.268       .  A
O30          C42   1.269       .  A
O31        Fe440   2.068   1_554  S
O31          C44   1.267       .  A
C32          O37   1.270       .  A
C32         C338   1.472       .  S
C33         C348   1.484       .  S
O34        Fe439   1.960       .  S
O35          C38   1.275       .  A
O36        Fe439   2.047       .  S
O36          C38   1.270       .  A
O37        Fe441   2.083       .  S
C38         C331   1.490       .  S
O39          C44   1.265       .  A
O40          C42   1.268       .  A
C41          O43   1.272       .  A
C41         C401   1.492       .  S
C42         C411   1.480       .  S
O43        Fe441   2.068       .  S
C44         C318   1.465       .  S
Fe45         O61   2.053       .  S
Fe45         O51   2.047       .  S
Fe45        O474   2.058       .  S
Fe45        O466   2.062       .  S
Fe45        O472   1.970       .  S
Fe46         O49   2.065       .  S
Fe46         O53   2.069       .  S
Fe46        O473   2.072       .  S
Fe46        O478   2.060       .  S
Fe46        O472   1.982       .  S
Fe47         O52   2.064       .  S
Fe47         O48   2.074       .  S
Fe47        O481   2.071   1_554  S
Fe47        O475   2.077   1_554  S
Fe47         O56   1.986   1_554  S
O48          C55   1.270       .  A
O49          C63   1.270       .  A
O50        Fe461   2.056   1_554  S
O50          C55   1.268       .  A
O51          C54   1.264       .  A
O52          C64   1.267       .  A
O53          C66   1.267       .  A
C54          O59   1.267       .  A
C54         C391   1.465       .  S
C55         C378   1.474       .  S
O56        Fe461   1.972       .  S
O56        Fe462   1.985   1_556  S
O57        Fe462   2.074       .  S
O57          C60   1.269       .  A
O58        Fe461   2.056   1_554  S
O58          C60   1.269       .  A
O59        Fe463   2.073       .  S
C60         C281   1.489       .  S
O61          C66   1.265       .  A
O62        Fe462   2.068       .  S
O62          C64   1.270       .  A
C63          O65   1.271       .  A
C63         C298   1.482       .  S
C64         C311   1.490       .  S
O65        Fe463   2.067       .  S
C66         C291   1.468       .  S
Fe67         O83   2.050       .  S
Fe67         O73   2.050       .  S
Fe67         O80   2.050       .  S
Fe67         O72   2.055       .  S
Fe67         O78   1.960       .  S
Fe68         O71   2.062       .  S
Fe68         O75   2.090       .  S
Fe68         O79   2.067       .  S
Fe68         O84   2.074       .  S
Fe68         O78   1.974       .  S
Fe69         O87   2.070       .  S
Fe69         O74   2.066       .  S
Fe69         O81   2.074       .  S
Fe69         O70   2.088       .  S
Fe69         O78   1.972       .  S
O70          C77   1.273       .  A
O71          C85   1.270       .  A
O72          C77   1.268       .  A
O73          C76   1.266       .  A
O74          C86   1.272       .  A
O75          C88   1.274       .  A
C76          O81   1.268       .  A
C76         C341   1.479       .  S
C77         C351   1.474       .  S
O79          C82   1.267       .  A
O80          C82   1.264       .  A
C82         C268   1.474       .  S
O83          C88   1.269       .  A
O84          C86   1.271       .  A
C85          O87   1.268       .  A
C85         C308   1.493       .  S
C86         C301   1.483       .  S
C88         C261   1.477       .  S
Fe89        O105   2.060       .  S
Fe89         O95   2.045       .  S
Fe89        O518   2.042       .  S
Fe89        O510   2.046       .  S
Fe89        O516   1.969       .  S
Fe90        O101   2.077       .  S
Fe90        O106   2.056       .  S
Fe90        O509   2.066   1_554  S
Fe90        O513   2.068   1_554  S
Fe90        O100   1.982       .  S
Fe91         O96   2.076       .  S
Fe91         O92   2.068       .  S
Fe91        O525   2.071   1_554  S
Fe91        O519   2.081   1_554  S
Fe91        O100   1.987       .  S
O92          C99   1.267       .  A
O93        Fe506   2.063       .  S
O93         C107   1.269       .  A
O94        Fe505   2.048       .  S
O94          C99   1.265       .  A
O95          C98   1.266       .  A
O96         C108   1.271       .  A
O97        Fe506   2.068       .  S
O97         C110   1.268       .  A
C98         O103   1.272       .  A
C98         C228   1.477       .  S
C99         C218   1.465       .  S
O100       Fe505   1.968       .  S
O101        C104   1.269       .  A
O102       Fe505   2.042       .  S
O102        C104   1.263       .  A
O103       Fe507   2.077       .  S
C104        C358   1.469       .  S
O105        C110   1.269       .  A
O106        C108   1.269       .  A
C107        O109   1.270       .  A
C107        C251   1.492       .  S
C108        C238   1.480       .  S
O109       Fe507   2.076       .  S
C110        C368   1.482       .  S
Fe111       O127   2.052       .  S
Fe111       O117   2.044       .  S
Fe111       O124   2.045       .  S
Fe111       O116   2.055       .  S
Fe111       O122   1.964       .  S
Fe112       O115   2.078       .  S
Fe112       O119   2.070       .  S
Fe112       O123   2.090       .  S
Fe112       O128   2.061       .  S
Fe112       O122   1.979       .  S
Fe113       O131   2.057       .  S
Fe113       O118   2.076       .  S
Fe113       O125   2.094       .  S
Fe113       O114   2.063       .  S
Fe113       O122   1.978       .  S
O114        C121   1.264       .  A
O115        C129   1.271       .  A
O116        C121   1.263       .  A
O117        C120   1.267       .  A
O118        C130   1.274       .  A
O119        C132   1.269       .  A
C120        O125   1.276       .  A
C120        C328   1.483       .  S
C121        C321   1.465       .  S
O123        C126   1.272       .  A
O124        C126   1.266       .  A
C126        C198   1.469       .  S
O127        C132   1.265       .  A
O128        C130   1.270       .  A
C129        O131   1.267       .  A
C129        C248   1.487       .  S
C130        C241   1.485       .  S
C132        C208   1.483       .  S
Fe133       O149   2.038       .  S
Fe133       O139   2.053       .  S
Fe133       O562   2.066       .  S
Fe133       O554   2.044       .  S
Fe133       O560   1.964       .  S
Fe134       O145   2.064   1_556  S
Fe134       O150   2.063   1_556  S
Fe134       O553   2.054       .  S
Fe134       O557   2.077       .  S
Fe134       O144   1.981       .  S
Fe135       O140   2.059   1_556  S
Fe135       O136   2.077   1_556  S
Fe135       O569   2.073       .  S
Fe135       O563   2.065       .  S
Fe135       O144   1.980       .  S
O136        C143   1.270       .  A
O137       Fe550   2.055       .  S
O137        C151   1.269       .  A
O138       Fe549   2.056   1_554  S
O138        C143   1.269       .  A
O139        C142   1.265       .  A
O140        C152   1.268       .  A
O141       Fe550   2.082       .  S
O141        C154   1.269       .  A
C142        O147   1.265       .  A
C142        C271   1.461       .  S
C143        C258   1.483       .  S
O144       Fe549   1.964       .  S
O145        C148   1.269       .  A
O146       Fe549   2.066   1_554  S
O146        C148   1.270       .  A
O147       Fe551   2.059       .  S
C148        C201   1.473       .  S
O149        C154   1.263       .  A
O150        C152   1.267       .  A
C151        O153   1.273       .  A
C151        C188   1.479       .  S
C152        C178   1.474       .  S
O153       Fe551   2.081       .  S
C154        C211   1.473       .  S
Fe155       O171   2.045       .  S
Fe155       O161   2.044       .  S
Fe155       O168   2.043       .  S
Fe155       O160   2.044       .  S
Fe155       O166   1.961       .  S
Fe156       O159   2.080       .  S
Fe156       O163   2.081       .  S
Fe156       O167   2.094       .  S
Fe156       O172   2.064       .  S
Fe156       O166   1.978       .  S
Fe157       O175   2.058       .  S
Fe157       O162   2.059       .  S
Fe157       O169   2.078       .  S
Fe157       O158   2.074       .  S
Fe157       O166   1.983       .  S
O158        C165   1.267       .  A
O159        C173   1.273       .  A
O160        C165   1.263       .  A
O161        C164   1.268       .  A
O162        C174   1.268       .  A
O163        C176   1.268       .  A
C164        O169   1.271       .  A
C164        C231   1.469       .  S
C165        C221   1.479       .  S
O167        C170   1.275       .  A
O168        C170   1.267       .  A
C170        C278   1.480       .  S
O171        C176   1.262       .  A
O172        C174   1.269       .  A
C173        O175   1.270       .  A
C173        C191   1.485       .  S
C174        C181   1.473       .  S
C176        C288   1.480       .  S
C177        C178   1.402       .  A
C177        C182   1.397       .  A
C177        H184   1.083       .  S
C178        C179   1.412       .  A
C179        C180   1.398       .  A
C179       Br186   1.921       .  S
C180        C181   1.402       .  A
C180        H185   1.085       .  S
C181        C182   1.411       .  A
C182       Br183   1.921       .  S
C187        C188   1.404       .  A
C187        C192   1.399       .  A
C187        H194   1.084       .  S
C188        C189   1.410       .  A
C189        C190   1.399       .  A
C189       Br196   1.922       .  S
C190        C191   1.408       .  A
C190        H195   1.084       .  S
C191        C192   1.413       .  A
C192       Br193   1.919       .  S
C197        C198   1.404       .  A
C197        C202   1.403       .  A
C197        H204   1.083       .  S
C198        C199   1.406       .  A
C199        C200   1.395       .  A
C199       Br206   1.919       .  S
C200        C201   1.403       .  A
C200        H205   1.084       .  S
C201        C202   1.411       .  A
C202       Br203   1.921       .  S
C207        C208   1.408       .  A
C207        C212   1.403       .  A
C207        H214   1.082       .  S
C208        C209   1.416       .  A
C209        C210   1.392       .  A
C209       Br216   1.925       .  S
C210        C211   1.400       .  A
C210        H215   1.084       .  S
C211        C212   1.409       .  A
C212       Br213   1.918       .  S
C217        C218   1.397       .  A
C217        C222   1.392       .  A
C217        H224   1.083       .  S
C218        C219   1.407   1_455  A
C219        C220   1.403       .  A
C219       Br226   1.918       .  S
C220        C221   1.407       .  A
C220        H225   1.083       .  S
C221        C222   1.415   1_655  A
C222       Br223   1.924       .  S
C227        C228   1.405       .  A
C227        C232   1.401   1_455  A
C227        H234   1.083       .  S
C228        C229   1.414   1_455  A
C229        C230   1.392       .  A
C229       Br236   1.925       .  S
C230        C231   1.399       .  A
C230        H235   1.084       .  S
C231        C232   1.410       .  A
C232       Br233   1.919       .  S
C237        C238   1.403       .  A
C237        C242   1.397       .  A
C237        H244   1.084       .  S
C238        C239   1.411       .  A
C239        C240   1.401       .  A
C239       Br246   1.921       .  S
C240        C241   1.407       .  A
C240        H245   1.083       .  S
C241        C242   1.415       .  A
C242       Br243   1.922       .  S
C247        C248   1.407       .  A
C247        C252   1.403       .  A
C247        H254   1.084       .  S
C248        C249   1.410       .  A
C249        C250   1.399       .  A
C249       Br256   1.920       .  S
C250        C251   1.408       .  A
C250        H255   1.083       .  S
C251        C252   1.415       .  A
C252       Br253   1.922       .  S
C257        C258   1.405   1_565  A
C257        C262   1.395       .  A
C257        H264   1.083       .  S
C258        C259   1.414       .  A
C259        C260   1.404   1_545  A
C259       Br266   1.918       .  S
C260        C261   1.404       .  A
C260        H265   1.083       .  S
C261        C262   1.409       .  A
C262       Br263   1.922       .  S
C267        C268   1.405       .  A
C267        C272   1.399       .  A
C267        H274   1.080       .  S
C268        C269   1.412   1_565  A
C269        C270   1.393       .  A
C269       Br276   1.921       .  S
C270        C271   1.398       .  A
C270        H275   1.085       .  S
C271        C272   1.405   1_545  A
C272       Br273   1.918       .  S
C277        C278   1.404       .  A
C277        C282   1.405       .  A
C277        H284   1.084       .  S
C278        C279   1.410       .  A
C279        C280   1.394       .  A
C279       Br286   1.924       .  S
C280        C281   1.406       .  A
C280        H285   1.084       .  S
C281        C282   1.417       .  A
C282       Br283   1.920       .  S
C287        C288   1.406       .  A
C287        C292   1.403       .  A
C287        H294   1.080       .  S
C288        C289   1.415       .  A
C289        C290   1.396       .  A
C289       Br296   1.923       .  S
C290        C291   1.399       .  A
C290        H295   1.084       .  S
C291        C292   1.407       .  A
C292       Br293   1.918       .  S
C297        C298   1.404       .  A
C297        C302   1.401       .  A
C297        H304   1.084       .  S
C298        C299   1.413       .  A
C299        C300   1.397       .  A
C299       Br306   1.922       .  S
C300        C301   1.404       .  A
C300        H305   1.084       .  S
C301        C302   1.414       .  A
C302       Br303   1.918       .  S
C307        C308   1.407       .  A
C307        C312   1.398       .  A
C307        H314   1.084       .  S
C308        C309   1.419       .  A
C309        C310   1.401       .  A
C309       Br316   1.923       .  S
C310        C311   1.406       .  A
C310        H315   1.084       .  S
C311        C312   1.415       .  A
C312       Br313   1.923       .  S
C317        C318   1.400       .  A
C317        C322   1.397       .  A
C317        H324   1.082       .  S
C318        C319   1.409   1_565  A
C319        C320   1.399       .  A
C319       Br326   1.920       .  S
C320        C321   1.401       .  A
C320        H325   1.083       .  S
C321        C322   1.407   1_545  A
C322       Br323   1.919       .  S
C327        C328   1.406   1_565  A
C327        C332   1.407       .  A
C327        H334   1.083       .  S
C328        C329   1.412       .  A
C329        C330   1.394   1_545  A
C329       Br336   1.925       .  S
C330        C331   1.406       .  A
C330        H335   1.084       .  S
C331        C332   1.415       .  A
C332       Br333   1.919       .  S
C337        C338   1.405       .  A
C337        C342   1.405       .  A
C337        H344   1.083       .  S
C338        C339   1.405       .  A
C339        C340   1.393       .  A
C339       Br346   1.919       .  S
C340        C341   1.405       .  A
C340        H345   1.083       .  S
C341        C342   1.413       .  A
C342       Br343   1.920       .  S
C347        C348   1.406       .  A
C347        C352   1.403       .  A
C347        H354   1.084       .  S
C348        C349   1.415       .  A
C349        C350   1.398       .  A
C349       Br356   1.923       .  S
C350        C351   1.400       .  A
C350        H355   1.084       .  S
C351        C352   1.409       .  A
C352       Br353   1.919       .  S
C357        C358   1.401       .  A
C357        C362   1.396       .  A
C357        H364   1.083       .  S
C358        C359   1.406       .  A
C359        C360   1.400       .  A
C359       Br366   1.918       .  S
C360        C361   1.406       .  A
C360        H365   1.083       .  S
C361        C362   1.416       .  A
C362       Br363   1.925       .  S
C367        C368   1.405       .  A
C367        C372   1.395       .  A
C367        H374   1.084       .  S
C368        C369   1.414       .  A
C369        C370   1.403       .  A
C369       Br376   1.921       .  S
C370        C371   1.404       .  A
C370        H375   1.084       .  S
C371        C372   1.408       .  A
C372       Br373   1.922       .  S
C377        C378   1.404   1_455  A
C377        C382   1.395       .  A
C377        H384   1.084       .  S
C378        C379   1.411       .  A
C379        C380   1.402       .  A
C379       Br386   1.920       .  S
C380        C381   1.403   1_655  A
C380        H385   1.083       .  S
C381        C382   1.405       .  A
C382       Br383   1.921       .  S
C387        C388   1.404       .  A
C387        C392   1.402       .  A
C387        H394   1.083       .  S
C388        C389   1.413   1_455  A
C389        C390   1.395       .  A
C389       Br396   1.923       .  S
C390        C391   1.399       .  A
C390        H395   1.084       .  S
C391        C392   1.407   1_655  A
C392       Br393   1.919       .  S
C397        C398   1.406       .  A
C397        C402   1.403       .  A
C397        H404   1.083       .  S
C398        C399   1.414       .  A
C399        C400   1.403       .  A
C399       Br406   1.922       .  S
C400        C401   1.407       .  A
C400        H405   1.083       .  S
C401        C402   1.414       .  A
C402       Br403   1.921       .  S
C407        C408   1.404       .  A
C407        C412   1.399       .  A
C407        H414   1.084       .  S
C408        C409   1.413       .  A
C409        C410   1.400       .  A
C409       Br416   1.921       .  S
C410        C411   1.404       .  A
C410        H415   1.083       .  S
C411        C412   1.413       .  A
C412       Br413   1.922       .  S
Fe417       O433   2.048       .  S
Fe417       O423   2.057       .  S
Fe417       O430   2.049       .  S
Fe417       O422   2.049       .  S
Fe417       O428   1.961       .  S
Fe418       O421   2.066       .  S
Fe418       O425   2.095       .  S
Fe418       O429   2.073       .  S
Fe418       O434   2.088       .  S
Fe418       O428   1.974       .  S
Fe419       O437   2.066       .  S
Fe419       O424   2.069       .  S
Fe419       O431   2.073       .  S
Fe419       O420   2.085       .  S
Fe419       O428   1.969       .  S
O420        C427   1.272       .  A
O421        C435   1.270       .  A
O422        C427   1.268       .  A
O423        C426   1.265       .  A
O424        C436   1.272       .  A
O425        C438   1.276       .  A
C426        O431   1.268       .  A
C426        C804   1.477       .  S
C427        C797   1.467       .  S
O429        C432   1.268       .  A
O430        C432   1.263       .  A
C432        C777   1.479       .  S
O433        C438   1.269       .  A
O434        C436   1.275       .  A
C435        O437   1.268       .  A
C435        C824   1.486       .  S
C436        C814   1.492       .  S
C438        C787   1.476       .  S
Fe439       O455   2.061       .  S
Fe439       O445   2.052       .  S
Fe440       O451   2.099       .  S
Fe440       O456   2.061       .  S
Fe440       O450   1.972   1_556  S
Fe441       O446   2.071   1_554  S
Fe441       O442   2.069   1_554  S
Fe441       O450   1.976       .  S
O442        C449   1.269       .  A
O443        C457   1.275       .  A
O444        C449   1.266       .  A
O445        C448   1.268       .  A
O446        C458   1.269       .  A
O447        C460   1.267       .  A
C448        O453   1.270       .  A
C448        C754   1.469       .  S
C449        C764   1.479       .  S
O451        C454   1.275       .  A
O452        C454   1.269       .  A
C454        C747   1.489       .  S
O455        C460   1.266       .  A
O456        C458   1.269       .  A
C457        O459   1.273       .  A
C457        C817   1.495       .  S
C458        C827   1.485       .  S
C460        C734   1.468       .  S
Fe461       O477   2.051       .  S
Fe461       O467   2.045       .  S
Fe462       O465   2.062   1_554  S
Fe462       O469   2.073   1_554  S
Fe463       O468   2.061       .  S
Fe463       O464   2.068       .  S
Fe463       O472   1.983       .  S
O464        C471   1.269       .  A
O465        C479   1.269       .  A
O466        C471   1.269       .  A
O467        C470   1.263       .  A
O468        C480   1.266       .  A
O469        C482   1.268       .  A
C470        O475   1.268       .  A
C470        C807   1.467       .  S
C471        C794   1.475       .  S
O473        C476   1.269       .  A
O474        C476   1.270       .  A
C476        C697   1.484       .  S
O477        C482   1.265       .  A
O478        C480   1.268       .  A
C479        O481   1.271       .  A
C479        C714   1.479       .  S
C480        C727   1.489       .  S
C482        C707   1.470       .  S
Fe483       O499   2.047       .  S
Fe483       O489   2.048       .  S
Fe483       O496   2.044       .  S
Fe483       O488   2.047       .  S
Fe483       O494   1.961       .  S
Fe484       O487   2.059       .  S
Fe484       O491   2.082       .  S
Fe484       O495   2.070       .  S
Fe484       O500   2.070       .  S
Fe484       O494   1.978       .  S
Fe485       O503   2.060       .  S
Fe485       O490   2.066       .  S
Fe485       O497   2.073       .  S
Fe485       O486   2.082       .  S
Fe485       O494   1.978       .  S
O486        C493   1.271       .  A
O487        C501   1.269       .  A
O488        C493   1.267       .  A
O489        C492   1.264       .  A
O490        C502   1.272       .  A
O491        C504   1.273       .  A
C492        O497   1.267       .  A
C492        C757   1.476       .  S
C493        C767   1.468       .  S
O495        C498   1.267       .  A
O496        C498   1.262       .  A
C498        C684   1.481       .  S
O499        C504   1.268       .  A
O500        C502   1.271       .  A
C501        O503   1.266       .  A
C501        C724   1.489       .  S
C502        C717   1.479       .  S
C504        C677   1.472       .  S
Fe505       O521   2.062   1_554  S
Fe505       O511   2.043   1_554  S
Fe506       O517   2.074       .  S
Fe506       O522   2.056       .  S
Fe506       O516   1.984       .  S
Fe507       O512   2.071       .  S
Fe507       O508   2.070       .  S
Fe507       O516   1.989       .  S
O508        C515   1.267       .  A
O509        C523   1.270       .  A
O510        C515   1.264       .  A
O511        C514   1.266       .  A
O512        C524   1.270       .  A
O513        C526   1.268       .  A
C514        O519   1.272       .  A
C514        C644   1.479       .  S
C515        C634   1.466       .  S
O517        C520   1.268       .  A
O518        C520   1.263       .  A
C520        C774   1.468       .  S
O521        C526   1.269       .  A
O522        C524   1.268       .  A
C523        O525   1.269       .  A
C523        C667   1.493       .  S
C524        C654   1.476       .  S
C526        C784   1.485       .  S
Fe527       O543   2.054       .  S
Fe527       O533   2.042       .  S
Fe527       O540   2.042       .  S
Fe527       O532   2.056       .  S
Fe527       O538   1.961       .  S
Fe528       O531   2.078       .  S
Fe528       O535   2.071       .  S
Fe528       O539   2.092       .  S
Fe528       O544   2.058       .  S
Fe528       O538   1.976       .  S
Fe529       O547   2.062       .  S
Fe529       O534   2.078       .  S
Fe529       O541   2.100       .  S
Fe529       O530   2.070       .  S
Fe529       O538   1.973       .  S
O530        C537   1.266       .  A
O531        C545   1.271       .  A
O532        C537   1.264       .  A
O533        C536   1.267       .  A
O534        C546   1.273       .  A
O535        C548   1.269       .  A
C536        O541   1.277       .  A
C536        C744   1.482       .  S
C537        C737   1.470       .  S
O539        C542   1.273       .  A
O540        C542   1.265       .  A
C542        C614   1.469       .  S
O543        C548   1.266       .  A
O544        C546   1.269       .  A
C545        O547   1.269       .  A
C545        C664   1.487       .  S
C546        C657   1.482       .  S
C548        C624   1.482       .  S
Fe549       O565   2.046       .  S
Fe549       O555   2.051       .  S
Fe550       O561   2.066       .  S
Fe550       O566   2.071       .  S
Fe550       O560   1.979       .  S
Fe551       O556   2.060       .  S
Fe551       O552   2.080       .  S
Fe551       O560   1.976       .  S
O552        C559   1.271       .  A
O553        C567   1.269       .  A
O554        C559   1.267       .  A
O555        C558   1.266       .  A
O556        C568   1.267       .  A
O557        C570   1.267       .  A
C558        O563   1.267       .  A
C558        C687   1.467       .  S
C559        C674   1.477       .  S
O561        C564   1.269       .  A
O562        C564   1.270       .  A
C564        C617   1.475       .  S
O565        C570   1.264       .  A
O566        C568   1.269       .  A
C567        O569   1.271       .  A
C567        C604   1.476       .  S
C568        C594   1.474       .  S
C570        C627   1.471       .  S
Fe571       O587   2.049       .  S
Fe571       O577   2.042       .  S
Fe571       O584   2.041       .  S
Fe571       O576   2.049       .  S
Fe571       O582   1.956       .  S
Fe572       O575   2.080       .  S
Fe572       O579   2.078       .  S
Fe572       O583   2.093       .  S
Fe572       O588   2.064       .  S
Fe572       O582   1.974       .  S
Fe573       O591   2.050       .  S
Fe573       O578   2.072       .  S
Fe573       O585   2.088       .  S
Fe573       O574   2.071       .  S
Fe573       O582   1.976       .  S
O574        C581   1.267       .  A
O575        C589   1.273       .  A
O576        C581   1.264       .  A
O577        C580   1.268       .  A
O578        C590   1.270       .  A
O579        C592   1.268       .  A
C580        O585   1.273       .  A
C580        C647   1.475       .  S
C581        C637   1.479       .  S
O583        C586   1.275       .  A
O584        C586   1.267       .  A
C586        C694   1.477       .  S
O587        C592   1.263       .  A
O588        C590   1.269       .  A
C589        O591   1.269       .  A
C589        C607   1.479       .  S
C590        C597   1.475       .  S
C592        C704   1.483       .  S
C593        C594   1.403       .  A
C593        C598   1.399       .  A
C593        H600   1.083       .  S
C594        C595   1.410       .  A
C595        C596   1.399       .  A
C595       Br602   1.921       .  S
C596        C597   1.403       .  A
C596        H601   1.084       .  S
C597        C598   1.410       .  A
C598       Br599   1.920       .  S
C603        C604   1.404       .  A
C603        C608   1.398       .  A
C603        H610   1.084       .  S
C604        C605   1.410       .  A
C605        C606   1.397       .  A
C605       Br612   1.922       .  S
C606        C607   1.406       .  A
C606        H611   1.084       .  S
C607        C608   1.411       .  A
C608       Br609   1.919       .  S
C613        C614   1.403       .  A
C613        C618   1.402       .  A
C613        H620   1.083       .  S
C614        C615   1.407       .  A
C615        C616   1.395       .  A
C615       Br622   1.920       .  S
C616        C617   1.404       .  A
C616        H621   1.084       .  S
C617        C618   1.411       .  A
C618       Br619   1.921       .  S
C623        C624   1.407       .  A
C623        C628   1.403       .  A
C623        H630   1.083       .  S
C624        C625   1.415       .  A
C625        C626   1.393       .  A
C625       Br632   1.924       .  S
C626        C627   1.399       .  A
C626        H631   1.085       .  S
C627        C628   1.409       .  A
C628       Br629   1.918       .  S
C633        C634   1.398       .  A
C633        C638   1.393       .  A
C633        H640   1.083       .  S
C634        C635   1.407   1_455  A
C635        C636   1.403       .  A
C635       Br642   1.918       .  S
C636        C637   1.407       .  A
C636        H641   1.083       .  S
C637        C638   1.415   1_655  A
C638       Br639   1.924       .  S
C643        C644   1.405       .  A
C643        C648   1.402   1_455  A
C643        H650   1.083       .  S
C644        C645   1.414   1_455  A
C645        C646   1.393       .  A
C645       Br652   1.925       .  S
C646        C647   1.401       .  A
C646        H651   1.084       .  S
C647        C648   1.411       .  A
C648       Br649   1.918       .  S
C653        C654   1.402       .  A
C653        C658   1.397       .  A
C653        H660   1.084       .  S
C654        C655   1.410       .  A
C655        C656   1.400       .  A
C655       Br662   1.921       .  S
C656        C657   1.406       .  A
C656        H661   1.083       .  S
C657        C658   1.414       .  A
C658       Br659   1.921       .  S
C663        C664   1.407       .  A
C663        C668   1.403       .  A
C663        H670   1.084       .  S
C664        C665   1.411       .  A
C665        C666   1.399       .  A
C665       Br672   1.920       .  S
C666        C667   1.408       .  A
C666        H671   1.083       .  S
C667        C668   1.416       .  A
C668       Br669   1.922       .  S
C673        C674   1.405   1_565  A
C673        C678   1.393       .  A
C673        H680   1.083       .  S
C674        C675   1.411       .  A
C675        C676   1.402   1_545  A
C675       Br682   1.919       .  S
C676        C677   1.405       .  A
C676        H681   1.083       .  S
C677        C678   1.408       .  A
C678       Br679   1.923       .  S
C683        C684   1.407       .  A
C683        C688   1.402   1_565  A
C683        H690   1.079       .  S
C684        C685   1.415   1_565  A
C685        C686   1.392       .  A
C685       Br692   1.923       .  S
C686        C687   1.398       .  A
C686        H691   1.085       .  S
C687        C688   1.406       .  A
C688       Br689   1.918   1_545  S
C693        C694   1.403       .  A
C693        C698   1.403       .  A
C693        H700   1.084       .  S
C694        C695   1.410       .  A
C695        C696   1.395       .  A
C695       Br702   1.924       .  S
C696        C697   1.405       .  A
C696        H701   1.084       .  S
C697        C698   1.416       .  A
C698       Br699   1.920       .  S
C703        C704   1.406       .  A
C703        C708   1.403       .  A
C703        H710   1.080       .  S
C704        C705   1.415       .  A
C705        C706   1.396       .  A
C705       Br712   1.924       .  S
C706        C707   1.400       .  A
C706        H711   1.084       .  S
C707        C708   1.407       .  A
C708       Br709   1.918       .  S
C713        C714   1.404       .  A
C713        C718   1.401       .  A
C713        H720   1.084       .  S
C714        C715   1.412       .  A
C715        C716   1.397       .  A
C715       Br722   1.922       .  S
C716        C717   1.403       .  A
C716        H721   1.084       .  S
C717        C718   1.412       .  A
C718       Br719   1.916       .  S
C723        C724   1.406       .  A
C723        C728   1.396       .  A
C723        H730   1.084       .  S
C724        C725   1.417       .  A
C725        C726   1.398       .  A
C725       Br732   1.924       .  S
C726        C727   1.406       .  A
C726        H731   1.083       .  S
C727        C728   1.417       .  A
C728       Br729   1.924       .  S
C733        C734   1.400       .  A
C733        C738   1.398       .  A
C733        H740   1.081       .  S
C734        C735   1.408   1_565  A
C735        C736   1.401       .  A
C735       Br742   1.920       .  S
C736        C737   1.403       .  A
C736        H741   1.083       .  S
C737        C738   1.408   1_545  A
C738       Br739   1.920       .  S
C743        C744   1.406   1_565  A
C743        C748   1.407       .  A
C743        H750   1.083       .  S
C744        C745   1.412       .  A
C745        C746   1.395   1_545  A
C745       Br752   1.925       .  S
C746        C747   1.406       .  A
C746        H751   1.084   1_565  S
C747        C748   1.414       .  A
C748       Br749   1.918       .  S
C753        C754   1.404       .  A
C753        C758   1.404       .  A
C753        H760   1.083       .  S
C754        C755   1.404       .  A
C755        C756   1.393       .  A
C755       Br762   1.918       .  S
C756        C757   1.404       .  A
C756        H761   1.083       .  S
C757        C758   1.412       .  A
C758       Br759   1.920       .  S
C763        C764   1.406       .  A
C763        C768   1.401       .  A
C763        H770   1.084       .  S
C764        C765   1.415       .  A
C765        C766   1.395       .  A
C765       Br772   1.924       .  S
C766        C767   1.399       .  A
C766        H771   1.084       .  S
C767        C768   1.408       .  A
C768       Br769   1.919       .  S
C773        C774   1.400       .  A
C773        C778   1.395       .  A
C773        H780   1.083       .  S
C774        C775   1.406       .  A
C775        C776   1.402       .  A
C775       Br782   1.918       .  S
C776        C777   1.406       .  A
C776        H781   1.083       .  S
C777        C778   1.415       .  A
C778       Br779   1.924       .  S
C783        C784   1.406       .  A
C783        C788   1.395       .  A
C783        H790   1.084       .  S
C784        C785   1.416       .  A
C785        C786   1.404       .  A
C785       Br792   1.921       .  S
C786        C787   1.404       .  A
C786        H791   1.084       .  S
C787        C788   1.409       .  A
C788       Br789   1.922       .  S
C793        C794   1.405   1_455  A
C793        C798   1.396       .  A
C793        H800   1.083       .  S
C794        C795   1.411       .  A
C795        C796   1.401       .  A
C795       Br802   1.921       .  S
C796        C797   1.402   1_655  A
C796        H801   1.083       .  S
C797        C798   1.405       .  A
C798       Br799   1.921       .  S
C803        C804   1.405       .  A
C803        C808   1.402       .  A
C803        H810   1.083       .  S
C804        C805   1.413   1_455  A
C805        C806   1.397       .  A
C805       Br812   1.922       .  S
C806        C807   1.400       .  A
C806        H811   1.084       .  S
C807        C808   1.406   1_655  A
C808       Br809   1.919       .  S
C813        C814   1.406       .  A
C813        C818   1.403       .  A
C813        H820   1.083       .  S
C814        C815   1.414       .  A
C815        C816   1.404       .  A
C815       Br822   1.921       .  S
C816        C817   1.408       .  A
C816        H821   1.083       .  S
C817        C818   1.415       .  A
C818       Br819   1.921       .  S
C823        C824   1.405       .  A
C823        C828   1.401       .  A
C823        H830   1.084       .  S
C824        C825   1.415       .  A
C825        C826   1.398       .  A
C825       Br832   1.922       .  S
C826        C827   1.404       .  A
C826        H831   1.083       .  S
C827        C828   1.415       .  A
C828       Br829   1.922       .  S
