geometry optimzed in LAMMPS
_audit_creation_date              2020-11-30 
_audit_creation_method            'lammps2cif' 
_symmetry_space_group_name_H-M    'P1' 
_symmetry_Int_Tables_number       1 
_symmetry_cell_setting            triclinic 
loop_ 
_symmetry_equiv_pos_as_xyz 
  x,y,z 
_cell_length_a                    36.17384613517282 
_cell_length_b                    35.178081746157766 
_cell_length_c                    34.546940627569924 
_cell_angle_alpha                 91.67568015629689 
_cell_angle_beta                  90.3501111870974 
_cell_angle_gamma                 89.80108699071319 
loop_ 
_atom_site_label 
_atom_site_type_symbol 
_atom_site_fract_x 
_atom_site_fract_y 
_atom_site_fract_z 
_atom_site_charge 
C1          C  0.72304821  0.99890404  0.01583070    -0.01300
C2          C  0.73929207  0.69369117  0.73735476    -0.01300
C3          C  0.02682456  0.01264826  0.72520131    -0.01300
C4          C  0.21246677  0.19659662  0.71888603    -0.01300
Zr5        Zr  0.51163356  0.26974454  0.79911524     2.17510
O6          O  0.51281372  0.31704184  0.85153826    -0.50140
O7          O  0.52354484  0.32674020  0.75810938    -0.73350
O8          O  0.57410988  0.28266344  0.79515650    -0.80130
O9          O  0.46126208  0.20614651  0.86487818    -0.81880
O10         O  0.58363815  0.27730009  0.73021149    -0.77500
O11         O  0.51387022  0.24158561  0.86190466    -0.89140
O12         O  0.47571114  0.33828124  0.71748111    -0.75100
O13         O  0.49419890  0.27755944  0.73730351    -0.84590
O14         O  0.44599669  0.27599860  0.79926194    -0.84280
O15         O  0.54391461  0.22038612  0.76169204    -0.71040
O16         O  0.48987252  0.20715473  0.80640618    -0.83170
Zr17       Zr  0.44401728  0.18067485  0.70124465     2.26420
Zr18       Zr  0.53127339  0.23942870  0.69716477     2.06270
Zr19       Zr  0.42451101  0.21222369  0.80600073     2.10050
Zr20       Zr  0.43119891  0.29106149  0.73485775     1.78760
O21         O  0.39042052  0.17868219  0.85512741    -0.91970
O22         O  0.41024943  0.32242041  0.67642900    -0.39780
O23         O  0.41006274  0.22724095  0.74097714    -0.76420
O24         O  0.46463982  0.24536262  0.69837471    -0.95100
O25         O  0.50998958  0.17528843  0.70387508    -0.88410
O26         O  0.45485311  0.16694479  0.76755095    -0.91250
C27         C  0.50876395  0.34467002  0.72939825     1.02500
C28         C  0.49186138  0.21913639  0.87901146     1.15430
C29         C  0.59386215  0.28736907  0.76554684     1.06210
O30         O  0.56170542  0.28473481  0.65616055    -0.93400
O31         O  0.49863625  0.24065274  0.63395323    -0.89150
O32         O  0.44352411  0.20938234  0.63783711    -0.82290
C33         C  0.46583200  0.23204768  0.62104007     1.12850
O34         O  0.57604706  0.15514499  0.80624021    -0.95380
Zr35       Zr  0.51904070  0.15770758  0.76888054     1.88940
O36         O  0.43173350  0.11517120  0.72006547    -0.72030
O37         O  0.57038668  0.18985964  0.66866646    -0.51290
O38         O  0.55754174  0.12326541  0.72204802    -0.95970
O39         O  0.52852997  0.12127218  0.82679671    -0.53190
O40         O  0.48144794  0.10023165  0.75703125    -0.72540
C41         C  0.44852570  0.09348560  0.74374380     0.99800
O42         O  0.44041364  0.13396263  0.64783146    -0.61360
O43         O  0.37987555  0.26026496  0.82789891    -0.56170
O44         O  0.38048411  0.17340856  0.70991262    -0.92850
O45         O  0.38148015  0.16534980  0.77486375    -0.91270
O46         O  0.40804939  0.34096118  0.77861458    -0.91630
O47         O  0.36713607  0.27955215  0.71665700    -0.90410
C48         C  0.36555601  0.16342793  0.74122555     1.18640
H49         H  0.43843034  0.29425616  0.81905285     0.34590
H50         H  0.45549625  0.26102418  0.67833652     0.45440
H51         H  0.44321911  0.14725315  0.78160813     0.38970
H52         H  0.57006966  0.21859686  0.76689755     0.35450
H53         H  0.40872902  0.34977929  0.68387102     0.27230
H54         H  0.58543939  0.20302956  0.64936117     0.33170
H55         H  0.57174986  0.10498818  0.73759127     0.39080
H56         H  0.40354213  0.36282703  0.76177648     0.33540
H57         H  0.35785496  0.24608665  0.83599897     0.32420
H58         H  0.38816311  0.19697041  0.87734050     0.34100
H59         H  0.52839507  0.09427785  0.81782510     0.33070
H60         H  0.36838548  0.26268131  0.69322038     0.37060
H61         H  0.41698599  0.13979157  0.63428157     0.29800
H62         H  0.49044122  0.33250733  0.84686860     0.34030
H63         H  0.59527087  0.15774366  0.78630963     0.36880
H64         H  0.39042504  0.27045738  0.85256087     0.29490
H65         H  0.46033152  0.14025804  0.62957687     0.42360
H66         H  0.54474258  0.30684550  0.65590822     0.32420
H67         H  0.43108242  0.32053094  0.65800923     0.40030
H68         H  0.50527110  0.12490928  0.84135667     0.31890
H69         H  0.58797477  0.18367549  0.68962067     0.31950
H70         H  0.53375073  0.33366320  0.84499385     0.32210
C71         C  0.53215266  0.48057560  0.71506529    -0.01300
C72         C  0.51199460  0.19557254  0.04336847    -0.01300
Zr73       Zr  0.81744768  0.76087931  0.96709108     2.17510
O74         O  0.86623210  0.79099703  0.93109961    -0.50140
O75         O  0.87786340  0.73129310  0.99279149    -0.73350
O76         O  0.81053414  0.83346472  0.98071651    -0.80130
O77         O  0.81057082  0.67700365  0.90454865    -0.81880
O78         O  0.80004009  0.83440268  0.04401263    -0.77500
O79         O  0.80624473  0.73869722  0.89722941    -0.89140
O80         O  0.86768879  0.68688954  0.03848288    -0.75100
O81         O  0.81108699  0.75395479  0.03571511    -0.84590
O82         O  0.81290237  0.69439926  0.98063231    -0.84280
O83         O  0.75894557  0.79024570  0.98551933    -0.71040
O84         O  0.76300562  0.73467189  0.93491774    -0.83170
Zr85       Zr  0.69590273  0.69432848  0.03411707     2.26420
Zr86       Zr  0.75484361  0.78591000  0.05377656     2.06270
Zr87       Zr  0.76037790  0.66828066  0.94753187     2.10050
Zr88       Zr  0.80514412  0.68759086  0.04804363     1.78760
O89         O  0.72638408  0.65014214  0.88887461    -0.91970
O90         O  0.83221790  0.71025565  0.10922743    -0.39780
O91         O  0.75290690  0.66352726  0.01568396    -0.76420
O92         O  0.75145507  0.71971653  0.06477587    -0.95100
O93         O  0.70067042  0.76122976  0.02080427    -0.88410
O94         O  0.70367383  0.69923794  0.96502772    -0.91250
C95         C  0.88859390  0.70519776  0.01703136     1.02500
C96         C  0.80386833  0.70416622  0.88287941     1.15430
C97         C  0.80038863  0.85179015  0.01251185     1.06210
O98         O  0.78932063  0.79177713  0.11436325    -0.93400
O99         O  0.69880056  0.77544880  0.08811780    -0.89150
O100        O  0.69454666  0.71589670  0.10390996    -0.82290
C101        C  0.70128920  0.75082763  0.11385005     1.12850
O102        O  0.72551211  0.81209952  0.90562070    -0.95380
Zr103      Zr  0.70719738  0.76542953  0.95273609     1.88940
O104        O  0.63672957  0.72435169  0.01120103    -0.72030
O105        O  0.72338190  0.84454578  0.07351025    -0.51290
O106        O  0.67660366  0.82128211  0.98109262    -0.95970
O107        O  0.67670540  0.76746769  0.88924701    -0.53190
O108        O  0.64719198  0.74128867  0.94995964    -0.72540
C109        C  0.62616717  0.73805205  0.97849896     0.99800
O110        O  0.64699458  0.65611925  0.06137398    -0.61360
O111        O  0.80004453  0.61203986  0.94347200    -0.56170
O112        O  0.71128498  0.62415866  0.02256511    -0.92850
O113        O  0.71257823  0.62379362  0.95905131    -0.91270
O114        O  0.82517395  0.62248261  0.03397279    -0.91630
O115        O  0.78898651  0.64611005  0.10055993    -0.90410
C116        C  0.71759706  0.60622819  0.98982329     1.18640
H117        H  0.83456308  0.68077303  0.97178612     0.34590
H118        H  0.75480189  0.71511104  0.09155133     0.45440
H119        H  0.68382214  0.68667053  0.95096429     0.38970
H120        H  0.75339072  0.81532935  0.97783708     0.35450
H121        H  0.84949712  0.68986324  0.11684971     0.27230
H122        H  0.74277564  0.86168557  0.08414988     0.33170
H123        H  0.65764284  0.82818595  0.96171618     0.39080
H124        H  0.84349159  0.61670460  0.05440906     0.33540
H125        H  0.80299461  0.60605017  0.91547025     0.32420
H126        H  0.73851364  0.62664314  0.87892054     0.34100
H127        H  0.65355544  0.78225152  0.89286400     0.33070
H128        H  0.76219630  0.64134475  0.09705772     0.37060
H129        H  0.65911523  0.64253776  0.08274506     0.29800
H130        H  0.85327582  0.80325322  0.90940158     0.34030
H131        H  0.70685151  0.83272231  0.90760987     0.36880
H132        H  0.82498210  0.61970238  0.95250221     0.29490
H133        H  0.63039863  0.67476348  0.07453743     0.42360
H134        H  0.81541058  0.79526909  0.10681786     0.32420
H135        H  0.84850026  0.73153575  0.10228630     0.40030
H136        H  0.66876626  0.74117941  0.88240162     0.31890
H137        H  0.71494205  0.85596274  0.04919208     0.31950
H138        H  0.87994626  0.76949107  0.91879851     0.32210
C139        C  0.85809603  0.35711038  0.86879474    -0.01300
C140        C  0.96418963  0.43920785  0.75836909    -0.01300
C141        C  0.75691063  0.46078364  0.97413347    -0.01300
C142        C  0.22013540  0.99316574  0.50341735    -0.01300
C143        C  0.11776314  0.09712055  0.60545130    -0.01300
C144        C  0.03989081  0.68220104  0.01841458    -0.01300
C145        C  0.24510254  0.48762570  0.02474252    -0.01300
C146        C  0.22315448  0.69351301  0.23640005    -0.01300
C147        C  0.13598147  0.58207375  0.12830015    -0.01300
C148        C  0.51434273  0.69536519  0.53999380    -0.01300
Zr149      Zr  0.29484592  0.76195916  0.47000460     2.17510
O150        O  0.34267210  0.80301247  0.44504092    -0.50140
O151        O  0.26851291  0.82754758  0.48541441    -0.73350
O152        O  0.28155523  0.75963719  0.39738366    -0.80130
O153        O  0.34681890  0.74262397  0.55640711    -0.81880
O154        O  0.22284557  0.77131588  0.40688783    -0.77500
O155        O  0.35764115  0.73859083  0.49375753    -0.89140
O156        O  0.25667984  0.82543055  0.54840175    -0.75100
O157        O  0.22968437  0.77413533  0.47931124    -0.84590
O158        O  0.28108291  0.76076305  0.53861334    -0.84280
O159        O  0.26324933  0.70838311  0.43941675    -0.71040
O160        O  0.31135126  0.69921133  0.49280193    -0.83170
Zr161      Zr  0.19741458  0.66472318  0.53832277     2.26420
Zr162      Zr  0.19944801  0.72235807  0.44634244     2.06270
Zr163      Zr  0.29774311  0.69902820  0.56015250     2.10050
Zr164      Zr  0.21629605  0.77381221  0.54699948     1.78760
O165        O  0.34375632  0.64858668  0.55923814    -0.91970
O166        O  0.16124862  0.80523084  0.52183568    -0.39780
O167        O  0.23340735  0.71427998  0.56898964    -0.76420
O168        O  0.18260181  0.72643249  0.51350296    -0.95100
O169        O  0.21306564  0.66170580  0.47045402    -0.88410
O170        O  0.26308378  0.64942097  0.52957839    -0.91250
C171        C  0.25704328  0.84325066  0.51764253     1.02500
C172        C  0.36849667  0.73466186  0.52934532     1.15430
C173        C  0.24807362  0.76093879  0.38382420     1.06210
O174        O  0.15753968  0.75598284  0.40375756    -0.93400
O175        O  0.13697445  0.71121462  0.45374627    -0.89150
O176        O  0.13285630  0.67735071  0.50862858    -0.82290
C177        C  0.11819513  0.69554153  0.47935480     1.12850
O178        O  0.32328191  0.65550095  0.41149190    -0.95380
Zr179      Zr  0.27774771  0.64832415  0.46256327     1.88940
O180        O  0.21147023  0.59695186  0.52506436    -0.72030
O181        O  0.18975062  0.67006580  0.39971553    -0.51290
O182        O  0.27488738  0.61150966  0.40175867    -0.95970
O183        O  0.32487829  0.60414039  0.48515507    -0.53190
O184        O  0.22371541  0.61029888  0.46523695    -0.72540
C185        C  0.22449399  0.58672442  0.49199769     0.99800
O186        O  0.15304383  0.63165853  0.57788105    -0.61360
O187        O  0.32795147  0.71728453  0.62149212    -0.56170
O188        O  0.21772654  0.68078922  0.60799208    -0.92850
O189        O  0.27396713  0.65691285  0.60596991    -0.91270
O190        O  0.21126144  0.82071058  0.60016835    -0.91630
O191        O  0.17810904  0.75812349  0.60224070    -0.90410
C192        C  0.24939695  0.67420061  0.62486697     1.18640
H193        H  0.29612254  0.77865456  0.55323112     0.34590
H194        H  0.15807108  0.73566630  0.51895766     0.45440
H195        H  0.26994589  0.62592935  0.54134331     0.38970
H196        H  0.26956366  0.70186792  0.41353007     0.35450
H197        H  0.16312309  0.83224245  0.53025729     0.27230
H198        H  0.17965898  0.68192779  0.37628096     0.33170
H199        H  0.29273004  0.59033940  0.40461896     0.39080
H200        H  0.19285763  0.83962363  0.59159044     0.33540
H201        H  0.35437798  0.71019152  0.61918443     0.32420
H202        H  0.34900592  0.64381164  0.58683142     0.34100
H203        H  0.32197475  0.58082845  0.46871207     0.33070
H204        H  0.15838922  0.74143197  0.59142446     0.37060
H205        H  0.13563228  0.65175789  0.58690006     0.29800
H206        H  0.32911661  0.82165088  0.42932012     0.34030
H207        H  0.34563768  0.66526671  0.42508750     0.36880
H208        H  0.32740572  0.74541065  0.62393889     0.29490
H209        H  0.13850132  0.61579823  0.55921682     0.42360
H210        H  0.14985786  0.77899222  0.41891185     0.32420
H211        H  0.16381899  0.80470152  0.49333772     0.40030
H212        H  0.31794131  0.59658175  0.51139088     0.31890
H213        H  0.21449616  0.66022303  0.39266651     0.31950
H214        H  0.35602000  0.78677071  0.42581531     0.32210
Zr215      Zr  0.30247046  0.42354437  0.78897837     2.17510
O216        O  0.34156350  0.39235168  0.83618405    -0.50140
O217        O  0.36429099  0.44290241  0.76206607    -0.73350
O218        O  0.29627517  0.35191342  0.77202966    -0.80130
O219        O  0.23205181  0.46154509  0.84514766    -0.81880
O220        O  0.29940082  0.35656603  0.70870664    -0.77500
O221        O  0.29004003  0.44895053  0.85826381    -0.89140
O222        O  0.35863633  0.50485097  0.74764044    -0.75100
O223        O  0.30773772  0.43845303  0.72170942    -0.84590
O224        O  0.29709694  0.49228765  0.78394632    -0.84280
O225        O  0.24797108  0.39606997  0.75777519    -0.71040
O226        O  0.24249751  0.44668244  0.80231359    -0.83170
Zr227      Zr  0.18921527  0.49072233  0.70324016     2.26420
Zr228      Zr  0.25695372  0.40582476  0.69096119     2.06270
Zr229      Zr  0.23615367  0.51281576  0.80288479     2.10050
Zr230      Zr  0.30007971  0.50588037  0.71659383     1.78760
O231        O  0.20553305  0.53609617  0.86186914    -0.91970
O232        O  0.33943895  0.49521135  0.66040403    -0.39780
O233        O  0.23957432  0.52425760  0.73544469    -0.76420
O234        O  0.25190033  0.47334767  0.68267016    -0.95100
O235        O  0.19574725  0.42354122  0.71283204    -0.88410
O236        O  0.18486685  0.48315888  0.77134524    -0.91250
C237        C  0.37793055  0.47507674  0.75125950     1.02500
C238        C  0.25769145  0.46068320  0.86975150     1.15430
C239        C  0.29178058  0.33669872  0.73736417     1.06210
O240        O  0.30348978  0.39612288  0.64103572    -0.93400
O241        O  0.20710975  0.40960914  0.64691141    -0.89150
O242        O  0.20182070  0.47005079  0.63375430    -0.82290
C243        C  0.21071584  0.43564226  0.62320311     1.12850
O244        O  0.20036314  0.36767036  0.82890897    -0.95380
Zr245      Zr  0.19030600  0.41580710  0.78050063     1.88940
O246        O  0.12744781  0.45921687  0.71825638    -0.72030
O247        O  0.23198234  0.35049460  0.65591513    -0.51290
O248        O  0.15999799  0.36222496  0.74751584    -0.95970
O249        O  0.16270907  0.42016227  0.84477996    -0.53190
O250        O  0.13233753  0.44117611  0.77988563    -0.72540
C251        C  0.11381577  0.44534138  0.74974480     0.99800
O252        O  0.14622622  0.52712905  0.66428934    -0.61360
O253        O  0.28297429  0.55930421  0.82385217    -0.56170
O254        O  0.19401996  0.55974980  0.72649314    -0.92850
O255        O  0.18956580  0.55840131  0.79071902    -0.91270
O256        O  0.30743923  0.57227955  0.73694184    -0.91630
O257        O  0.30082242  0.55060424  0.66406672    -0.90410
C258        C  0.19396607  0.57700311  0.76052249     1.18640
H259        H  0.31590521  0.50455327  0.79976423     0.34590
H260        H  0.25769586  0.48149340  0.65720430     0.45440
H261        H  0.16322291  0.49591590  0.78162229     0.38970
H262        H  0.24042257  0.37080899  0.76162299     0.35450
H263        H  0.36390844  0.50547692  0.66817423     0.27230
H264        H  0.25358526  0.33541380  0.64702298     0.33170
H265        H  0.13731061  0.35805165  0.76268799     0.39080
H266        H  0.33418394  0.57745082  0.73433213     0.33540
H267        H  0.28143008  0.57962249  0.80474116     0.32420
H268        H  0.22134056  0.55578518  0.87431448     0.34100
H269        H  0.13842084  0.40729034  0.84271775     0.33070
H270        H  0.27445539  0.55669105  0.65935700     0.37060
H271        H  0.16200456  0.54014086  0.64549144     0.29800
H272        H  0.35682109  0.37427958  0.82066667     0.34030
H273        H  0.17943470  0.34972701  0.82572970     0.36880
H274        H  0.27461579  0.57169763  0.84825617     0.29490
H275        H  0.13264507  0.50772915  0.64853840     0.42360
H276        H  0.32761466  0.39894665  0.65447341     0.32420
H277        H  0.34290225  0.46734644  0.65845516     0.40030
H278        H  0.15666510  0.44741270  0.84932541     0.31890
H279        H  0.21958223  0.33515566  0.67549646     0.31950
H280        H  0.32449105  0.37598907  0.85051820     0.32210
Zr281      Zr  0.03431252  0.68085665  0.69839808     2.17510
O282        O  0.06624071  0.64539151  0.64699999    -0.50140
O283        O  0.01852016  0.61322549  0.71088026    -0.73350
O284        O  0.10181758  0.68663198  0.71228723    -0.80130
O285        O  0.94954036  0.69202713  0.64152632    -0.81880
O286        O  0.09427064  0.68222591  0.77485714    -0.77500
O287        O  0.00865531  0.70584902  0.63534318    -0.89140
O288        O  0.01472431  0.61895388  0.77462061    -0.75100
O289        O  0.03025198  0.67481124  0.76751777    -0.84590
O290        O  0.97069348  0.67006720  0.71538258    -0.84280
O291        O  0.05767803  0.73911509  0.73028891    -0.71040
O292        O  0.00047908  0.73703958  0.68345042    -0.83170
Zr293      Zr  0.95836030  0.77708835  0.80096528     2.26420
Zr294      Zr  0.05398035  0.73116700  0.79895018     2.06270
Zr295      Zr  0.93752198  0.72646048  0.70009204     2.10050
Zr296      Zr  0.96733872  0.66382512  0.78374671     1.78760
O297        O  0.91500838  0.76874153  0.65057049    -0.91970
O298        O  0.97964248  0.63229284  0.84488420    -0.39780
O299        O  0.93485128  0.71971944  0.76900496    -0.76420
O300        O  0.99099985  0.71882878  0.81443868    -0.95100
O301        O  0.02128930  0.78716693  0.78196395    -0.88410
O302        O  0.96090016  0.78226820  0.73156028    -0.91250
C303        C  0.01211927  0.59889812  0.74415932     1.02500
C304        C  0.97485500  0.70667625  0.62220283     1.15430
C305        C  0.11449487  0.69129579  0.74700935     1.06210
O306        O  0.08275304  0.69693508  0.85130771    -0.93400
O307        O  0.04330486  0.76566271  0.85866746    -0.89150
O308        O  0.98296558  0.76181069  0.86892329    -0.82290
C309        C  0.01705340  0.75541840  0.87994380     1.12850
O310        O  0.07144298  0.79614120  0.66411021    -0.95380
Zr311      Zr  0.02348891  0.79286197  0.71326475     1.88940
O312        O  0.97748002  0.84538083  0.78701875    -0.72030
O313        O  0.09993139  0.78172140  0.80310922    -0.51290
O314        O  0.06977262  0.83548167  0.74167876    -0.95970
O315        O  0.00993612  0.82287687  0.65203007    -0.53190
O316        O  0.98473452  0.84469246  0.72268847    -0.72540
C317        C  0.98383517  0.86233408  0.75462824     0.99800
O318        O  0.91917873  0.81589580  0.84342682    -0.61360
O319        O  0.88579698  0.68338313  0.68809898    -0.56170
O320        O  0.89224755  0.75707879  0.78505096    -0.92850
O321        O  0.89242476  0.77028672  0.72327526    -0.91270
O322        O  0.91920318  0.62785797  0.74855065    -0.91630
O323        O  0.92059563  0.65281464  0.83263600    -0.90410
C324        C  0.87576982  0.75741603  0.75152829     1.18640
H325        H  0.96097411  0.64860658  0.70058851     0.34590
H326        H  0.98924789  0.70727991  0.83904139     0.45440
H327        H  0.94405539  0.80172456  0.72357115     0.38970
H328        H  0.08170154  0.74749072  0.72261599     0.35450
H329        H  0.98462376  0.60506489  0.83931083     0.27230
H330        H  0.11821478  0.77412915  0.82284221     0.33170
H331        H  0.07108015  0.85676823  0.72360928     0.39080
H332        H  0.89940206  0.62283051  0.76732868     0.33540
H333        H  0.87432667  0.69201543  0.66378365     0.32420
H334        H  0.88928421  0.76056514  0.64521019     0.34100
H335        H  0.01579662  0.85018080  0.65620440     0.33070
H336        H  0.91329474  0.67859910  0.84207557     0.37060
H337        H  0.90941815  0.79773532  0.86212189     0.29800
H338        H  0.08351357  0.62832994  0.66057143     0.34030
H339        H  0.09453574  0.80262758  0.67827339     0.36880
H340        H  0.89685617  0.65840246  0.68098624     0.29490
H341        H  0.93662694  0.83196431  0.85879893     0.42360
H342        H  0.06845310  0.67306807  0.85263711     0.32420
H343        H  0.00407129  0.64219367  0.85327232     0.40030
H344        H  0.98268620  0.82195486  0.64923094     0.31890
H345        H  0.11310471  0.78191634  0.77819474     0.31950
H346        H  0.08234634  0.66436945  0.63495146     0.32210
C347        C  0.25300032  0.73641709  0.76875293    -0.01300
Zr348      Zr  0.44873299  0.76584538  0.30765346     2.17510
O349        O  0.41618833  0.81174953  0.34923321    -0.50140
O350        O  0.46529813  0.74282220  0.37403059    -0.73350
O351        O  0.38498091  0.74141515  0.30969695    -0.80130
O352        O  0.52360647  0.82535494  0.29933691    -0.81880
O353        O  0.39456196  0.67891960  0.30676475    -0.77500
O354        O  0.46478628  0.83320777  0.28859640    -0.89140
O355        O  0.52517163  0.72804575  0.36888004    -0.75100
O356        O  0.45978532  0.69852868  0.31111672    -0.84590
O357        O  0.51421505  0.75733623  0.30968005    -0.84280
O358        O  0.42221772  0.73617801  0.24865595    -0.71040
O359        O  0.47224990  0.78848377  0.24703662    -0.83170
Zr360      Zr  0.52823275  0.67948709  0.19837172     2.26420
Zr361      Zr  0.43469089  0.66947019  0.25294481     2.06270
Zr362      Zr  0.53723371  0.77907965  0.25027787     2.10050
Zr363      Zr  0.52470540  0.68961397  0.31389835     1.78760
O364        O  0.55466104  0.81790917  0.19586541    -0.91970
O365        O  0.49976631  0.63653290  0.34916104    -0.39780
O366        O  0.54261752  0.71306672  0.25554391    -0.76420
O367        O  0.50016974  0.65959159  0.25854111    -0.95100
O368        O  0.46208013  0.69009740  0.19485753    -0.88410
O369        O  0.51537040  0.74745664  0.19210380    -0.91250
C370        C  0.49637817  0.73127783  0.38841421     1.02500
C371        C  0.49811687  0.84653584  0.28882264     1.15430
C372        C  0.37274263  0.70701893  0.30580014     1.06210
O373        O  0.41392886  0.61043526  0.28054539    -0.93400
O374        O  0.44822271  0.61899437  0.20754524    -0.89150
O375        O  0.50891068  0.61044963  0.20841569    -0.82290
C376        C  0.47564683  0.59785332  0.21437065     1.12850
O377        O  0.39652127  0.79909969  0.19801825    -0.95380
Zr378      Zr  0.44936276  0.75647104  0.19005500     1.88940
O379        O  0.51427008  0.69812386  0.13118631    -0.72030
O380        O  0.38108479  0.66921936  0.20963866    -0.51290
O381        O  0.39478484  0.75164806  0.14853366    -0.95970
O382        O  0.46928142  0.80888020  0.15036389    -0.53190
O383        O  0.45500668  0.70658400  0.14216988    -0.72540
C384        C  0.48224428  0.70907541  0.11969533     0.99800
O385        O  0.57134104  0.63792859  0.16333160    -0.61360
O386        O  0.59168178  0.81760216  0.26500681    -0.56170
O387        O  0.59502763  0.70549627  0.21012189    -0.92850
O388        O  0.58223367  0.73360598  0.26605184    -0.91270
O389        O  0.58227450  0.68889775  0.35078966    -0.91630
O390        O  0.57624645  0.64709033  0.29830643    -0.90410
C391        C  0.60584032  0.72548356  0.24059275     1.18640
H392        H  0.52624935  0.77270893  0.32949216     0.34590
H393        H  0.50582780  0.63475771  0.26709822     0.45440
H394        H  0.52759578  0.75678145  0.16962990     0.38970
H395        H  0.39630254  0.74148293  0.24481163     0.35450
H396        H  0.51101366  0.63899759  0.37529592     0.27230
H397        H  0.36756317  0.64560357  0.21515882     0.33170
H398        H  0.40019522  0.76756840  0.12610238     0.39080
H399        H  0.57705314  0.67333997  0.37356024     0.33540
H400        H  0.58614067  0.84377415  0.25710347     0.32420
H401        H  0.57230334  0.80236322  0.18034924     0.34100
H402        H  0.45819357  0.80383013  0.12449039     0.33070
H403        H  0.57662439  0.64486716  0.26967394     0.37060
H404        H  0.58133848  0.62078544  0.18310807     0.29800
H405        H  0.40496680  0.79638742  0.36962129     0.34030
H406        H  0.40590675  0.82057642  0.21439144     0.36880
H407        H  0.59379580  0.81915208  0.29359446     0.29490
H408        H  0.55558508  0.62141906  0.14645068     0.42360
H409        H  0.42754471  0.60885600  0.30539582     0.32420
H410        H  0.47322881  0.64214515  0.35304377     0.40030
H411        H  0.49619807  0.80638573  0.14651587     0.31890
H412        H  0.36460125  0.69020918  0.21825254     0.31950
H413        H  0.39495976  0.82021162  0.33340011     0.32210
C414        C  0.35644880  0.83977149  0.87115595    -0.01300
C415        C  0.44194574  0.95189998  0.77098877    -0.01300
C416        C  0.47553666  0.76252459  0.96905879    -0.01300
C417        C  0.73271042  0.50586445  0.52843990    -0.01300
Zr418      Zr  0.68654315  0.51690067  0.20847876     2.17510
O419        O  0.64726816  0.55921449  0.17154870    -0.50140
O420        O  0.62420624  0.49168459  0.22956290    -0.73350
O421        O  0.69044928  0.49256530  0.13780647    -0.80130
O422        O  0.75892787  0.58043581  0.24826140    -0.81880
O423        O  0.68885839  0.42971380  0.14504805    -0.77500
O424        O  0.70110954  0.58594869  0.22672279    -0.89140
O425        O  0.63059114  0.49707944  0.29296674    -0.75100
O426        O  0.67601180  0.45331162  0.22875419    -0.84590
O427        O  0.69066377  0.51959381  0.27865014    -0.84280
O428        O  0.73930900  0.48140717  0.18482362    -0.71040
O429        O  0.74803543  0.53300264  0.22968083    -0.83170
Zr430      Zr  0.78989956  0.43512363  0.29250052     2.26420
Zr431      Zr  0.72632907  0.41744504  0.20089095     2.06270
Zr432      Zr  0.75177303  0.53704829  0.29813189     2.10050
Zr433      Zr  0.68053181  0.45537310  0.29819527     1.78760
O434        O  0.80023653  0.57753806  0.32582061    -0.91970
O435        O  0.64037735  0.40055663  0.28788758    -0.39780
O436        O  0.74025768  0.47375940  0.31551097    -0.76420
O437        O  0.72786055  0.41747316  0.27029926    -0.95100
O438        O  0.78755557  0.43561714  0.22254833    -0.88410
O439        O  0.80084007  0.49922475  0.27437524    -0.91250
C440        C  0.61110410  0.48848706  0.26424931     1.02500
C441        C  0.73166066  0.60119774  0.24012760     1.15430
C442        C  0.69489592  0.45783078  0.12403256     1.06210
O443        O  0.67877477  0.36933168  0.20736057    -0.93400
O444        O  0.77377930  0.37334740  0.21537377    -0.89150
O445        O  0.77458598  0.36574856  0.27787374    -0.82290
C446        C  0.76578657  0.35305083  0.24351738     1.12850
O447        O  0.80033190  0.52784172  0.14143364    -0.95380
Zr448      Zr  0.79864892  0.49925203  0.20506037     1.88940
O449        O  0.85642716  0.45175440  0.27424385    -0.72030
O450        O  0.74830076  0.37869038  0.14575760    -0.51290
O451        O  0.83119078  0.45363646  0.16293966    -0.95970
O452        O  0.82327660  0.56372545  0.20332186    -0.53190
O453        O  0.85805810  0.49731173  0.22900205    -0.72540
C454        C  0.87383882  0.47583523  0.25246946     0.99800
O455        O  0.82782483  0.39906479  0.33699083    -0.61360
O456        O  0.71121504  0.58073489  0.33409855    -0.56170
O457        O  0.77063758  0.46145999  0.35969308    -0.92850
O458        O  0.78301559  0.52309305  0.35730687    -0.91270
O459        O  0.65956178  0.47933392  0.36111543    -0.91630
O460        O  0.68023305  0.40814077  0.34835275    -0.90410
C461        C  0.77074382  0.49556652  0.37599488     1.18640
H462        H  0.67503443  0.53973609  0.28893365     0.34590
H463        H  0.71913376  0.39364897  0.27908551     0.45440
H464        H  0.82232182  0.51066107  0.28654850     0.38970
H465        H  0.74565739  0.48647715  0.15893039     0.35450
H466        H  0.61715299  0.40693314  0.30160790     0.27230
H467        H  0.72869706  0.37725296  0.12570254     0.33170
H468        H  0.85563126  0.46515649  0.15822823     0.39080
H469        H  0.63524288  0.46718549  0.36493305     0.33540
H470        H  0.71393803  0.57355472  0.36144663     0.32420
H471        H  0.78786837  0.59512835  0.34455277     0.34100
H472        H  0.84728597  0.56140303  0.18983123     0.33070
H473        H  0.70551433  0.39724929  0.34820152     0.37060
H474        H  0.80999328  0.38344232  0.35118565     0.29800
H475        H  0.62910349  0.54220601  0.15834796     0.34030
H476        H  0.82553751  0.52296434  0.13139572     0.36880
H477        H  0.72318211  0.60593153  0.33281395     0.29490
H478        H  0.84145427  0.38057732  0.32023025     0.42360
H479        H  0.65853152  0.37705431  0.18982700     0.32420
H480        H  0.63407055  0.39988853  0.26005601     0.40030
H481        H  0.83007752  0.57025845  0.23051219     0.31890
H482        H  0.76869930  0.39309708  0.13427239     0.31950
H483        H  0.66325001  0.56809760  0.15049098     0.32210
C484        C  0.70579504  0.21172789  0.23072141    -0.01300
Zr485      Zr  0.78664243  0.94344588  0.78137194     2.17510
O486        O  0.82578195  0.90404182  0.82162939    -0.50140
O487        O  0.85177141  0.96462419  0.76684119    -0.73350
O488        O  0.77726877  0.87603355  0.75822769    -0.80130
O489        O  0.77977594  0.01753847  0.85108033    -0.81880
O490        O  0.74488047  0.87267661  0.70164070    -0.77500
O491        O  0.76833496  0.95624361  0.85055939    -0.89140
O492        O  0.84759933  0.97973274  0.70496467    -0.75100
O493        O  0.78863400  0.95408644  0.71331123    -0.84590
O494        O  0.79525596  0.01103032  0.77580942    -0.84280
O495        O  0.72643703  0.92476143  0.75588058    -0.71040
O496        O  0.73334938  0.97625521  0.80621485    -0.83170
Zr497      Zr  0.68051606  0.03133609  0.70687899     2.26420
Zr498      Zr  0.72941911  0.93594715  0.68785963     2.06270
Zr499      Zr  0.74137750  0.04265152  0.80078201     2.10050
Zr500      Zr  0.79603715  0.02117650  0.70776126     1.78760
O501        O  0.69536867  0.06628515  0.84693356    -0.91970
O502        O  0.81487695  0.01696261  0.64015724    -0.39780
O503        O  0.74092412  0.04760156  0.73268041    -0.76420
O504        O  0.73799047  0.00268942  0.68225760    -0.95100
O505        O  0.67475249  0.96448990  0.71584186    -0.88410
O506        O  0.68184311  0.02336416  0.77610810    -0.91250
C507        C  0.86674263  0.97662713  0.73535027     1.02500
C508        C  0.76669850  0.98917782  0.86809695     1.15430
C509        C  0.75974422  0.85742501  0.73064458     1.06210
O510        O  0.77721105  0.92896425  0.63888203    -0.93400
O511        O  0.68440065  0.95431314  0.64104574    -0.89150
O512        O  0.68849580  0.01575109  0.63460831    -0.82290
C513        C  0.69395173  0.98157065  0.62044422     1.12850
O514        O  0.67374419  0.89978769  0.82336677    -0.95380
Zr515      Zr  0.67522213  0.95624837  0.78402936     1.88940
O516        O  0.61614066  0.00632503  0.72442752    -0.72030
O517        O  0.69229614  0.89021243  0.65047376    -0.51290
O518        O  0.63530303  0.91031603  0.75021425    -0.95970
O519        O  0.65573814  0.96570787  0.85104253    -0.53190
O520        O  0.61972447  0.98990248  0.78658356    -0.72540
C521        C  0.60116867  0.99410052  0.75619723     0.99800
O522        O  0.64449816  0.07688836  0.67049314    -0.61360
O523        O  0.77100293  0.09911414  0.82947907    -0.56170
O524        O  0.68471682  0.09831229  0.73593898    -0.92850
O525        O  0.74250482  0.08903317  0.75225459    -0.91270
O526        O  0.84065502  0.06483310  0.73782349    -0.91630
O527        O  0.79896903  0.08241957  0.67674984    -0.90410
C528        C  0.71503918  0.11128825  0.75115802     1.18640
H529        H  0.81715333  0.02038538  0.78903559     0.34590
H530        H  0.74503582  0.00898917  0.65671243     0.45440
H531        H  0.66299101  0.03896309  0.78831606     0.38970
H532        H  0.71835120  0.89977296  0.76245880     0.35450
H533        H  0.83770093  0.03221491  0.63848493     0.27230
H534        H  0.70873344  0.86915642  0.64171889     0.33170
H535        H  0.65196500  0.88930157  0.74182480     0.39080
H536        H  0.82585139  0.08169498  0.75519831     0.33540
H537        H  0.75381165  0.10956472  0.84927457     0.32420
H538        H  0.68676738  0.09067965  0.83643699     0.34100
H539        H  0.62938621  0.95828001  0.85187714     0.33070
H540        H  0.77349154  0.08692812  0.66724463     0.37060
H541        H  0.66213735  0.08759835  0.65193765     0.29800
H542        H  0.84137196  0.88929123  0.80308632     0.34030
H543        H  0.64760049  0.89153011  0.82323714     0.36880
H544        H  0.79257358  0.08979794  0.84423572     0.29490
H545        H  0.62756512  0.06102885  0.65431140     0.42360
H546        H  0.77824280  0.90131879  0.63272949     0.32420
H547        H  0.82310601  0.99035410  0.63562313     0.40030
H548        H  0.65563876  0.99362464  0.85564250     0.31890
H549        H  0.67486721  0.87935617  0.66910032     0.31950
H550        H  0.80881945  0.88504516  0.83236393     0.32210
C551        C  0.73781785  0.26392151  0.78181684    -0.01300
Zr552      Zr  0.78647087  0.26509505  0.46015380     2.17510
O553        O  0.82061801  0.31050571  0.42236694    -0.50140
O554        O  0.85232572  0.24746374  0.47080491    -0.73350
O555        O  0.77669348  0.32854086  0.49081636    -0.80130
O556        O  0.78754266  0.19341887  0.38784146    -0.81880
O557        O  0.76399724  0.32311283  0.55415986    -0.77500
O558        O  0.77018222  0.25324775  0.39015683    -0.89140
O559        O  0.84350549  0.23922789  0.53258794    -0.75100
O560        O  0.78839163  0.25263486  0.52836199    -0.84590
O561        O  0.79972027  0.19813912  0.46583080    -0.84280
O562        O  0.72550033  0.28094672  0.48573262    -0.71040
O563        O  0.73523268  0.23118660  0.43156954    -0.83170
Zr564      Zr  0.69305384  0.16731352  0.53218934     2.26420
Zr565      Zr  0.72816104  0.26709120  0.55317283     2.06270
Zr566      Zr  0.74943488  0.16538914  0.43552908     2.10050
Zr567      Zr  0.80261902  0.18662163  0.53329597     1.78760
O568        O  0.71136864  0.14773669  0.37958099    -0.91970
O569        O  0.84495796  0.18015032  0.58796146    -0.39780
O570        O  0.75271307  0.15437351  0.50355694    -0.76420
O571        O  0.74519289  0.20229992  0.56055202    -0.95100
O572        O  0.67811508  0.23303689  0.52425267    -0.88410
O573        O  0.69085141  0.17912536  0.46401162    -0.91250
C574        C  0.86469814  0.23718013  0.50382797     1.02500
C575        C  0.77223098  0.22093204  0.37147235     1.15430
C576        C  0.76807411  0.34286668  0.52450634     1.06210
O577        O  0.74579798  0.29498519  0.61596251    -0.93400
O578        O  0.69496174  0.24369819  0.60725513    -0.89150
O579        O  0.69861146  0.17980226  0.60394601    -0.82290
C580        C  0.70089966  0.21206103  0.62302950     1.12850
O581        O  0.66859214  0.30043223  0.41658819    -0.95380
Zr582      Zr  0.67640491  0.24479753  0.45647975     1.88940
O583        O  0.62637750  0.18839089  0.51905849    -0.72030
O584        O  0.67619409  0.31119935  0.55150704    -0.51290
O585        O  0.62864041  0.28619945  0.48434262    -0.95970
O586        O  0.65629966  0.22390039  0.39171506    -0.53190
O587        O  0.62664364  0.20257180  0.45694428    -0.72540
C588        C  0.60956437  0.20017262  0.48805371     0.99800
O589        O  0.65664158  0.11553059  0.55731651    -0.61360
O590        O  0.79508286  0.11719520  0.41674135    -0.56170
O591        O  0.72331960  0.10586248  0.50907535    -0.92850
O592        O  0.71471819  0.11028043  0.44621442    -0.91270
O593        O  0.84045277  0.13881509  0.50003184    -0.91630
O594        O  0.79673154  0.14157712  0.58529925    -0.90410
C595        C  0.72845995  0.09292051  0.47396074     1.18640
H596        H  0.82171597  0.19037396  0.45232075     0.34590
H597        H  0.75396464  0.19774002  0.58625411     0.45440
H598        H  0.67363282  0.16192862  0.45130222     0.38970
H599        H  0.71781826  0.30683110  0.48164304     0.35450
H600        H  0.86880936  0.17192897  0.57657143     0.27230
H601        H  0.67304778  0.32010839  0.57873773     0.33170
H602        H  0.63911937  0.31215515  0.48456747     0.39080
H603        H  0.85615447  0.12794012  0.52053359     0.33540
H604        H  0.78957502  0.11090451  0.38919927     0.32420
H605        H  0.72126596  0.12289694  0.37016184     0.34100
H606        H  0.63276562  0.23679059  0.38572391     0.33070
H607        H  0.77413532  0.12684061  0.57883784     0.37060
H608        H  0.67435590  0.10072872  0.57288458     0.29800
H609        H  0.83643027  0.32446356  0.44143450     0.34030
H610        H  0.64192307  0.30148541  0.41005748     0.36880
H611        H  0.81912775  0.13049901  0.41634304     0.29490
H612        H  0.64016940  0.12796509  0.57669446     0.42360
H613        H  0.77263546  0.28995250  0.61857885     0.32420
H614        H  0.84934797  0.20629167  0.59831537     0.40030
H615        H  0.65060425  0.19640699  0.39185144     0.31890
H616        H  0.68531372  0.33367512  0.53796114     0.31950
H617        H  0.80189286  0.32936853  0.41436902     0.32210
C618        C  0.86468697  0.84810287  0.37541413    -0.01300
C619        C  0.77263599  0.95576889  0.48196983    -0.01300
C620        C  0.95973381  0.74175628  0.47541509    -0.01300
C621        C  0.75000105  0.76689472  0.26462034    -0.01300
C622        C  0.26472593  0.44038021  0.47503129    -0.01300
Zr623      Zr  0.52797130  0.52212394  0.02208903     2.17510
O624        O  0.56055303  0.56623331  0.06581345    -0.50140
O625        O  0.50180715  0.58382651  0.00652811    -0.73350
O626        O  0.59064929  0.52728154  0.99216668    -0.80130
O627        O  0.45680442  0.49858772  0.09818243    -0.81880
O628        O  0.58813705  0.51125377  0.92853231    -0.77500
O629        O  0.51810153  0.49933427  0.09050661    -0.89140
O630        O  0.47639024  0.57904362  0.94643972    -0.75100
O631        O  0.51539098  0.51946406  0.95469458    -0.84590
O632        O  0.46214304  0.52297224  0.01074400    -0.84280
O633        O  0.55861998  0.46576116  0.99737869    -0.71040
O634        O  0.50333046  0.46605447  0.04696176    -0.83170
Zr635      Zr  0.45512345  0.40380085  0.94935874     2.26420
Zr636      Zr  0.54310020  0.46315645  0.93021042     2.06270
Zr637      Zr  0.43806323  0.46797388  0.03977565     2.10050
Zr638      Zr  0.45056062  0.51772548  0.94286075     1.78760
O639        O  0.40007294  0.45188989  0.09507949    -0.91970
O640        O  0.45472739  0.54067413  0.87682429    -0.39780
O641        O  0.42671659  0.46289563  0.97159375    -0.76420
O642        O  0.47769935  0.46059424  0.91845547    -0.95100
O643        O  0.52064835  0.40790888  0.95961592    -0.88410
O644        O  0.46818433  0.40930747  0.01889698    -0.91250
C645        C  0.48674806  0.59800791  0.97627240     1.02500
C646        C  0.48879950  0.49288899  0.11114465     1.15430
C647        C  0.60617629  0.52079069  0.95867345     1.06210
O648        O  0.53350564  0.50253250  0.87396699    -0.93400
O649        O  0.53964962  0.40687904  0.89181349    -0.89150
O650        O  0.47974428  0.40018834  0.88035222    -0.82290
C651        C  0.51315976  0.40646856  0.86819173     1.12850
O652        O  0.58570177  0.43486157  0.06645639    -0.95380
Zr653      Zr  0.53443566  0.41105881  0.02676014     1.88940
O654        O  0.47172936  0.34365721  0.98135088    -0.72030
O655        O  0.60089902  0.42695663  0.92545411    -0.51290
O656        O  0.58863826  0.36974325  0.02841218    -0.95970
O657        O  0.51900790  0.38349707  0.08853460    -0.53190
O658        O  0.53042903  0.35858631  0.98270593    -0.72540
C659        C  0.50510319  0.33604358  0.99139217     0.99800
O660        O  0.41793100  0.35717179  0.91317260    -0.61360
O661        O  0.39211165  0.51938301  0.04239635    -0.56170
O662        O  0.38894933  0.41832065  0.96811482    -0.92850
O663        O  0.39912591  0.41426914  0.03023224    -0.91270
O664        O  0.39916016  0.55508872  0.96906938    -0.91630
O665        O  0.39858556  0.50847668  0.89836101    -0.90410
C666        C  0.37707569  0.42183265  0.00337756     1.18640
H667        H  0.45125177  0.54570087  0.02196997     0.34590
H668        H  0.47173005  0.46231892  0.89133432     0.45440
H669        H  0.45865875  0.38827686  0.03304917     0.38970
H670        H  0.58494903  0.46416556  0.00170732     0.35450
H671        H  0.47627995  0.55788392  0.87639558     0.27230
H672        H  0.61440208  0.43433178  0.90219933     0.33170
H673        H  0.58605295  0.35471708  0.05201187     0.39080
H674        H  0.38838629  0.56813070  0.94662313     0.33540
H675        H  0.37206668  0.51064749  0.05911516     0.32420
H676        H  0.39334904  0.47576767  0.10923332     0.34100
H677        H  0.53089230  0.35814447  0.08838483     0.33070
H678        H  0.39912022  0.48099953  0.89126476     0.37060
H679        H  0.40824564  0.37098937  0.89067465     0.29800
H680        H  0.57311994  0.58407056  0.04861714     0.34030
H681        H  0.57458471  0.44129959  0.09194085     0.36880
H682        H  0.40324459  0.53999975  0.05866025     0.29490
H683        H  0.43602672  0.33881076  0.90198584     0.42360
H684        H  0.53699103  0.52925030  0.88296575     0.32420
H685        H  0.46206245  0.51857203  0.86020564     0.40030
H686        H  0.49226463  0.37837650  0.08766526     0.31890
H687        H  0.61645556  0.43560814  0.94761942     0.31950
H688        H  0.58084674  0.55092758  0.07687999     0.32210
C689        C  0.46532201  0.44952245  0.26924730    -0.01300
C690        C  0.36228908  0.34109245  0.36126004    -0.01300
C691        C  0.45115143  0.24347804  0.47745209    -0.01300
Zr692      Zr  0.45805223  0.93565416  0.44318974     2.17510
O693        O  0.42496071  0.88850097  0.40346911    -0.50140
O694        O  0.47306508  0.95564666  0.37679467    -0.73350
O695        O  0.39255790  0.95668269  0.44992840    -0.80130
O696        O  0.54161290  0.86570344  0.47365238    -0.81880
O697        O  0.39698979  0.01929293  0.45963645    -0.77500
O698        O  0.47933262  0.86992059  0.46839107    -0.89140
O699        O  0.47311134  0.01590213  0.39487832    -0.75100
O700        O  0.46232492  0.00386773  0.44843642    -0.84590
O701        O  0.52138334  0.95362558  0.43032069    -0.84280
O702        O  0.43553017  0.95626855  0.50689803    -0.71040
O703        O  0.49559828  0.91766542  0.49387540    -0.83170
Zr704      Zr  0.53794690  0.01883883  0.55188034     2.26420
Zr705      Zr  0.44066861  0.02450656  0.51071041     2.06270
Zr706      Zr  0.55762333  0.93084414  0.48168638     2.10050
Zr707      Zr  0.52494034  0.02181930  0.43691503     1.78760
O708        O  0.59463000  0.87341388  0.47046378    -0.91970
O709        O  0.51610854  0.08015436  0.40138680    -0.39780
O710        O  0.56133574  0.99848838  0.48861371    -0.76420
O711        O  0.50275384  0.04172916  0.49731874    -0.95100
O712        O  0.47539232  0.99849520  0.56245382    -0.88410
O713        O  0.53661323  0.95005066  0.54539327    -0.91250
C714        C  0.47798786  0.99074675  0.36891211     1.02500
C715        C  0.50987971  0.85121422  0.47729086     1.15430
C716        C  0.37772473  0.98949382  0.45812249     1.06210
O717        O  0.41135120  0.08286210  0.49015263    -0.93400
O718        O  0.45609750  0.07675886  0.55466938    -0.89150
O719        O  0.51582104  0.08793644  0.54724507    -0.82290
C720        C  0.48154518  0.09962409  0.54576327     1.12850
O721        O  0.43884427  0.87239657  0.54451830    -0.95380
Zr722      Zr  0.47400866  0.93066699  0.55611170     1.88940
O723        O  0.51431236  0.00090522  0.61713374    -0.72030
O724        O  0.39092833  0.01575492  0.55690674    -0.51290
O725        O  0.42048673  0.94462640  0.59642307    -0.95970
O726        O  0.48836258  0.86884861  0.58276076    -0.53190
O727        O  0.51377688  0.93813696  0.61007376    -0.72540
C728        C  0.50839282  0.96749215  0.63044419     0.99800
O729        O  0.57902552  0.05505637  0.59492011    -0.61360
O730        O  0.59837254  0.94736487  0.42866666    -0.56170
O731        O  0.60356272  0.99995111  0.53614437    -0.92850
O732        O  0.60262464  0.93682281  0.53047132    -0.91270
O733        O  0.57858646  0.01215687  0.39571558    -0.91630
O734        O  0.56330835  0.07758070  0.44983795    -0.90410
C735        C  0.61976133  0.96747774  0.52856744     1.18640
H736        H  0.53045239  0.94223330  0.40661084     0.34590
H737        H  0.50289829  0.06737365  0.48905375     0.45440
H738        H  0.55274683  0.93865907  0.56395448     0.38970
H739        H  0.41093957  0.94770692  0.51286032     0.35450
H740        H  0.51830934  0.07270594  0.37365231     0.27230
H741        H  0.37649195  0.03969461  0.55653899     0.33170
H742        H  0.40035616  0.92878081  0.58513511     0.39080
H743        H  0.58195407  0.03660600  0.38272078     0.33540
H744        H  0.62382322  0.94197083  0.43742377     0.32420
H745        H  0.60588344  0.87505216  0.44450999     0.34100
H746        H  0.48182550  0.87113068  0.61054090     0.33070
H747        H  0.58215290  0.06928076  0.46872968     0.37060
H748        H  0.58970569  0.07468443  0.57838360     0.29800
H749        H  0.40874077  0.90357089  0.38650340     0.34030
H750        H  0.42119651  0.87831779  0.52351200     0.36880
H751        H  0.59374697  0.92824158  0.40761471     0.29490
H752        H  0.56231278  0.06934016  0.61272057     0.42360
H753        H  0.42453314  0.08948508  0.46623583     0.32420
H754        H  0.48980286  0.08724761  0.40493236     0.40030
H755        H  0.51568062  0.86703057  0.58251329     0.31890
H756        H  0.37438739  0.99625141  0.54515172     0.31950
H757        H  0.40780616  0.87641581  0.42161406     0.32210
C758        C  0.52760100  0.98389164  0.22321143    -0.01300
C759        C  0.03542971  0.47641433  0.22577026    -0.01300
Zr760      Zr  0.95346471  0.42521944  0.45664378     2.17510
O761        O  0.91021089  0.38355997  0.42179606    -0.50140
O762        O  0.97374830  0.36052606  0.47462622    -0.73350
O763        O  0.97397676  0.42698180  0.38679204    -0.80130
O764        O  0.89328493  0.43867180  0.53583777    -0.81880
O765        O  0.03317884  0.41893162  0.40019459    -0.77500
O766        O  0.88808276  0.44595447  0.47326018    -0.89140
O767        O  0.99395673  0.35975376  0.53653214    -0.75100
O768        O  0.01785876  0.41517059  0.47166208    -0.84590
O769        O  0.96259249  0.42504561  0.52605528    -0.84280
O770        O  0.98655477  0.47918847  0.43225156    -0.71040
O771        O  0.93145126  0.48520711  0.48337648    -0.83170
Zr772      Zr  0.03715196  0.52761268  0.54160528     2.26420
Zr773      Zr  0.05018389  0.46758930  0.44673110     2.06270
Zr774      Zr  0.93982270  0.48401408  0.55210360     2.10050
Zr775      Zr  0.02700757  0.41628077  0.53995961     1.78760
O776        O  0.88878279  0.52905875  0.55784960    -0.91970
O777        O  0.07728985  0.37936615  0.51085938    -0.39780
O778        O  0.00414004  0.47422437  0.56559852    -0.76420
O779        O  0.06069505  0.46730146  0.51527112    -0.95100
O780        O  0.02752832  0.52649231  0.47260069    -0.88410
O781        O  0.97174023  0.53689158  0.52682176    -0.91250
C782        C  0.98645300  0.34332201  0.50461994     1.02500
C783        C  0.87392218  0.44850894  0.50762239     1.15430
C784        C  0.00822995  0.42672404  0.37591706     1.06210
O785        O  0.10316634  0.42490547  0.44960506    -0.93400
O786        O  0.09495352  0.51600049  0.45067631    -0.89150
O787        O  0.10197043  0.52184825  0.51466494    -0.82290
C788        C  0.11544285  0.51491133  0.48018135     1.12850
O789        O  0.92771810  0.52237682  0.39949782    -0.95380
Zr790      Zr  0.96374498  0.53683346  0.45803551     1.88940
O791        O  0.01978700  0.59357625  0.52865453    -0.72030
O792        O  0.07555734  0.49744817  0.39016079    -0.51290
O793        O  0.96418063  0.57949849  0.40371023    -0.95970
O794        O  0.90924826  0.57334245  0.47836067    -0.53190
O795        O  0.01650559  0.57578297  0.46792199    -0.72540
C796        C  0.01105315  0.60098380  0.49381735     0.99800
O797        O  0.07705027  0.56432837  0.58550007    -0.61360
O798        O  0.91603738  0.45230976  0.60857692    -0.56170
O799        O  0.01573659  0.51123960  0.60935320    -0.92850
O800        O  0.95687022  0.52671430  0.60405156    -0.91270
O801        O  0.02132033  0.37540799  0.59555671    -0.91630
O802        O  0.07411500  0.42762565  0.58989904    -0.90410
C803        C  0.98267364  0.51329247  0.62413849     1.18640
H804        H  0.94832463  0.40504901  0.53718049     0.34590
H805        H  0.08591626  0.46077229  0.52168052     0.45440
H806        H  0.96219723  0.55963489  0.53930964     0.38970
H807        H  0.98456960  0.48588974  0.40584669     0.35450
H808        H  0.08936714  0.36678265  0.53288391     0.27230
H809        H  0.08189542  0.47682828  0.37138959     0.33170
H810        H  0.94140696  0.59507057  0.40603509     0.39080
H811        H  0.04591349  0.36360978  0.59935234     0.33540
H812        H  0.88995051  0.46040273  0.61118888     0.32420
H813        H  0.88043019  0.52742966  0.58498527     0.34100
H814        H  0.91108521  0.59838146  0.46627970     0.33070
H815        H  0.07502591  0.45558962  0.59394775     0.37060
H816        H  0.05996027  0.57618572  0.60462648     0.29800
H817        H  0.92601491  0.36539804  0.40693441     0.34030
H818        H  0.90803228  0.50502455  0.40791917     0.36880
H819        H  0.91532819  0.42471105  0.60215575     0.29490
H820        H  0.09072858  0.54496401  0.60015754     0.42360
H821        H  0.10556281  0.41402492  0.42298050     0.32420
H822        H  0.06518068  0.35841574  0.49588694     0.40030
H823        H  0.91111525  0.57852080  0.50651372     0.31890
H824        H  0.05496357  0.51192457  0.37872286     0.31950
H825        H  0.89891702  0.39975071  0.40191659     0.32210
C826        C  0.00659163  0.17843629  0.49869251    -0.01300
C827        C  0.24630578  0.92403209  0.97530791    -0.01300
Zr828      Zr  0.95340378  0.01171344  0.03362994     2.17510
O829        O  0.92507467  0.05179446  0.08447765    -0.50140
O830        O  0.95315278  0.08083512  0.02638424    -0.73350
O831        O  0.95839450  0.98871477  0.09926560    -0.80130
O832        O  0.89134227  0.03049012  0.95587310    -0.81880
O833        O  0.01296398  0.95606499  0.10211844    -0.77500
O834        O  0.89024319  0.01502469  0.01887213    -0.89140
O835        O  0.00142955  0.09199588  0.98684109    -0.75100
O836        O  0.01974047  0.01466215  0.03291030    -0.84590
O837        O  0.96569554  0.03154442  0.96936510    -0.84280
O838        O  0.97326863  0.94651834  0.04012834    -0.71040
O839        O  0.92095212  0.96805920  0.98960088    -0.83170
Zr840      Zr  0.02151166  0.92342894  0.93172885     2.26420
Zr841      Zr  0.04027164  0.94975334  0.03740008     2.06270
Zr842      Zr  0.93728177  0.98723810  0.92607691     2.10050
Zr843      Zr  0.03183978  0.03378809  0.96912499     1.78760
O844        O  0.89464075  0.94489101  0.89105716    -0.91970
O845        O  0.07620517  0.05977971  0.01614399    -0.39780
O846        O  0.99991766  0.98494970  0.93569957    -0.76420
O847        O  0.05391164  0.96969752  0.97347689    -0.95100
O848        O  0.00612630  0.91134933  0.99458574    -0.88410
O849        O  0.95558713  0.92176891  0.93184082    -0.91250
C850        C  0.97302298  0.10278406  0.00616006     1.02500
C851        C  0.87543639  0.02891829  0.98897875     1.15430
C852        C  0.98276235  0.96929232  0.11721574     1.06210
O853        O  0.08818675  0.99079130  0.06529719    -0.93400
O854        O  0.09277312  0.91384479  0.00467254    -0.89150
O855        O  0.08132568  0.90260963  0.94008763    -0.82290
C856        C  0.10193672  0.90210256  0.96980375     1.12850
O857        O  0.89110405  0.91821513  0.04005842    -0.95380
Zr858      Zr  0.94240994  0.90434997  0.99655215     1.88940
O859        O  0.03187413  0.85953842  0.95825837    -0.72030
O860        O  0.06279637  0.89727516  0.07560710    -0.51290
O861        O  0.92190027  0.85377806  0.03811491    -0.95970
O862        O  0.90479853  0.86911179  0.94921263    -0.53190
O863        O  0.98926147  0.85546876  0.00580536    -0.72540
C864        C  0.01774491  0.84276110  0.98734403     0.99800
O865        O  0.01066359  0.88488795  0.87330625    -0.61360
O866        O  0.91072538  0.02134609  0.87214212    -0.56170
O867        O  0.03719925  0.96656027  0.88002297    -0.92850
O868        O  0.98642328  0.00489849  0.87996744    -0.91270
O869        O  0.03470374  0.07450125  0.91343625    -0.91630
O870        O  0.08752985  0.03721816  0.92988646    -0.90410
C871        C  0.01937270  0.99583489  0.86801339     1.18640
H872        H  0.95397600  0.05436976  0.96063615     0.34590
H873        H  0.08009538  0.97090613  0.96859208     0.45440
H874        H  0.94676034  0.90480889  0.91138312     0.38970
H875        H  0.96452791  0.93321107  0.06216427     0.35450
H876        H  0.09230319  0.07641162  0.00096435     0.27230
H877        H  0.07361880  0.90946615  0.09924527     0.33170
H878        H  0.90523104  0.83765767  0.02187072     0.39080
H879        H  0.04294466  0.09959639  0.92391688     0.33540
H880        H  0.88363017  0.01997759  0.87574630     0.32420
H881        H  0.87775165  0.93566328  0.91115459     0.34100
H882        H  0.88054582  0.86618513  0.96188094     0.33070
H883        H  0.08886549  0.01269261  0.91518879     0.37060
H884        H  0.00192663  0.90308266  0.85391429     0.29800
H885        H  0.94463827  0.05791308  0.10384326     0.34030
H886        H  0.86923591  0.91950128  0.02275787     0.36880
H887        H  0.91688815  0.04834391  0.87782200     0.29490
H888        H  0.03573746  0.87712078  0.86487334     0.42360
H889        H  0.08496703  0.98925596  0.09364961     0.32420
H890        H  0.06183541  0.07768249  0.03286543     0.40030
H891        H  0.91580603  0.84330542  0.94852597     0.31890
H892        H  0.04021324  0.88447816  0.08460454     0.31950
H893        H  0.90698195  0.03581662  0.09791110     0.32210
C894        C  0.97439319  0.94536604  0.28404685    -0.01300
C895        C  0.96452538  0.26393943  0.97249597    -0.01300
Zr896      Zr  0.29771801  0.24427985  0.94785480     2.17510
O897        O  0.34398802  0.27304882  0.90750288    -0.50140
O898        O  0.35716060  0.22577847  0.98025455    -0.73350
O899        O  0.30049772  0.31188889  0.97304385    -0.80130
O900        O  0.28012871  0.16959373  0.87850544    -0.81880
O901        O  0.29404561  0.30438575  0.03611124    -0.77500
O902        O  0.28103214  0.23196600  0.87733827    -0.89140
O903        O  0.35031969  0.16389401  0.99028868    -0.75100
O904        O  0.29510198  0.23173293  0.01526569    -0.84590
O905        O  0.29244384  0.17565730  0.95238081    -0.84280
O906        O  0.24245888  0.27726030  0.97117276    -0.71040
O907        O  0.23994349  0.22216750  0.92048007    -0.83170
Zr908      Zr  0.18115259  0.17686092  0.02138303     2.26420
Zr909      Zr  0.24118031  0.26527863  0.03881661     2.06270
Zr910      Zr  0.23435563  0.15505246  0.92545232     2.10050
Zr911      Zr  0.29180549  0.16417812  0.01980186     1.78760
O912        O  0.18668653  0.15796236  0.87548767    -0.91970
O913        O  0.32663674  0.18197103  0.07807143    -0.39780
O914        O  0.23450397  0.14562892  0.99300681    -0.76420
O915        O  0.24088919  0.19818375  0.04463031    -0.95100
O916        O  0.18405484  0.24417456  0.01110399    -0.88410
O917        O  0.18190870  0.18534089  0.95267529    -0.91250
C918        C  0.36943419  0.19366133  0.99242635     1.02500
C919        C  0.27293671  0.19948837  0.86067563     1.15430
C920        C  0.29493856  0.32594125  0.00772642     1.06210
O921        O  0.26988586  0.28644017  0.09949832    -0.93400
O922        O  0.19599716  0.25377093  0.08698286    -0.89150
O923        O  0.19252094  0.19196214  0.09333837    -0.82290
C924        C  0.20167716  0.22526456  0.10747727     1.12850
O925        O  0.19930947  0.30553544  0.90010487    -0.95380
Zr926      Zr  0.18702729  0.25320784  0.94304358     1.88940
O927        O  0.12167470  0.21043674  0.99992051    -0.72030
O928        O  0.20081140  0.32090414  0.03758144    -0.51290
O929        O  0.15505083  0.30699218  0.97322421    -0.95970
O930        O  0.15896900  0.25682686  0.87877968    -0.53190
O931        O  0.12990291  0.22409737  0.93751407    -0.72540
C932        C  0.10998237  0.22334729  0.96688565     0.99800
O933        O  0.13216978  0.14247757  0.05328257    -0.61360
O934        O  0.25645516  0.09467775  0.89731399    -0.56170
O935        O  0.19113565  0.10652715  0.00645807    -0.92850
O936        O  0.20289125  0.09830984  0.94234034    -0.91270
O937        O  0.31644881  0.09994449  0.01234936    -0.91630
O938        O  0.27594303  0.11802100  0.06822211    -0.90410
C939        C  0.19880185  0.08524525  0.97597977     1.18640
H940        H  0.31181372  0.16235609  0.93838083     0.34590
H941        H  0.24799526  0.19217186  0.07006577     0.45440
H942        H  0.16162446  0.17085103  0.94155557     0.38970
H943        H  0.23999758  0.30389300  0.96578106     0.35450
H944        H  0.35158766  0.17096962  0.07419405     0.27230
H945        H  0.20403142  0.33435606  0.06290481     0.33170
H946        H  0.14092370  0.31843228  0.95183035     0.39080
H947        H  0.33899059  0.09969409  0.02877193     0.33540
H948        H  0.23894421  0.08762128  0.87621330     0.32420
H949        H  0.17827280  0.13136479  0.87161094     0.34100
H950        H  0.13456540  0.26925803  0.88242952     0.33070
H951        H  0.24862536  0.11647293  0.06735283     0.37060
H952        H  0.14504159  0.12766772  0.07327578     0.29800
H953        H  0.36224990  0.28423957  0.92597375     0.34030
H954        H  0.20043803  0.32883207  0.91684167     0.36880
H955        H  0.28028444  0.09954167  0.88449039     0.29490
H956        H  0.11833353  0.16231939  0.06813140     0.42360
H957        H  0.29269691  0.27097336  0.10165860     0.32420
H958        H  0.32993561  0.20981921  0.07729922     0.40030
H959        H  0.15334421  0.23032825  0.87030004     0.31890
H960        H  0.21058364  0.33804077  0.01797903     0.31950
H961        H  0.33132741  0.29527344  0.89640410     0.32210
Zr962      Zr  0.29352413  0.91427621  0.27051436     2.17510
O963        O  0.33224076  0.87158420  0.30755949    -0.50140
O964        O  0.35634238  0.92748064  0.24782068    -0.73350
O965        O  0.27897508  0.84826736  0.24431671    -0.80130
O966        O  0.29920937  0.99250570  0.34424102    -0.81880
O967        O  0.26842596  0.85767497  0.18127836    -0.77500
O968        O  0.28226176  0.93219859  0.34191715    -0.89140
O969        O  0.35025292  0.94707264  0.18712150    -0.75100
O970        O  0.29030378  0.92746113  0.20281277    -0.84590
O971        O  0.30725279  0.98102693  0.26194293    -0.84280
O972        O  0.23196521  0.89794985  0.24765307    -0.71040
O973        O  0.24714962  0.95111017  0.30278265    -0.83170
Zr974      Zr  0.19094592  0.01056908  0.20793785     2.26420
Zr975      Zr  0.22980105  0.91235203  0.17998400     2.06270
Zr976      Zr  0.26014476  0.01696942  0.29456723     2.10050
Zr977      Zr  0.30230785  0.99305851  0.19467257     1.78760
O978        O  0.22748316  0.04425091  0.35014145    -0.91970
O979        O  0.31938838  0.98873430  0.12644063    -0.39780
O980        O  0.25393846  0.02657474  0.22700527    -0.76420
O981        O  0.24171051  0.97828990  0.17370312    -0.95100
O982        O  0.18152805  0.94347520  0.21623981    -0.88410
O983        O  0.19920824  0.99973336  0.27575647    -0.91250
C984        C  0.37025348  0.93890899  0.21588056     1.02500
C985        C  0.28539774  0.96459635  0.36116142     1.15430
C986        C  0.26865903  0.83634849  0.20996433     1.06210
O987        O  0.26437158  0.90861972  0.11984883    -0.93400
O988        O  0.17812635  0.93856559  0.14560822    -0.89150
O989        O  0.18590653  0.99896536  0.13609617    -0.82290
C990        C  0.18534129  0.96457935  0.12226404     1.12850
O991        O  0.19822215  0.87868651  0.32519872    -0.95380
Zr992      Zr  0.18800901  0.93275315  0.28384388     1.88940
O993        O  0.12931141  0.98363982  0.23223074    -0.72030
O994        O  0.19055257  0.86266819  0.15147782    -0.51290
O995        O  0.14512138  0.88795967  0.25329251    -0.95970
O996        O  0.16059866  0.92655997  0.34765617    -0.53190
O997        O  0.14117856  0.97699339  0.29436720    -0.72540
C998        C  0.11898246  0.97441530  0.26686734     0.99800
O999        O  0.14653646  0.05894190  0.18905967    -0.61360
O1000       O  0.30801321  0.06554340  0.29851329    -0.56170
O1001       O  0.21822385  0.07518717  0.22426288    -0.92850
O1002       O  0.22281544  0.07211273  0.28795510    -0.91270
O1003       O  0.34995471  0.03517185  0.22142076    -0.91630
O1004       O  0.30394961  0.04863096  0.15430398    -0.90410
C1005       C  0.22804693  0.09002563  0.25755156     1.18640
H1006       H  0.33111231  0.98798791  0.27260523     0.34590
H1007       H  0.24547124  0.98467459  0.14734174     0.45440
H1008       H  0.18466772  0.01806857  0.29042784     0.38970
H1009       H  0.22317649  0.87283635  0.25253869     0.35450
H1010       H  0.34628202  0.99385323  0.12594754     0.27230
H1011       H  0.20521189  0.83892360  0.15033763     0.33170
H1012       H  0.13531169  0.87321811  0.27491964     0.39080
H1013       H  0.37205198  0.02951357  0.20546372     0.33540
H1014       H  0.30196690  0.08093580  0.32209318     0.32420
H1015       H  0.24073625  0.06802921  0.35741743     0.34100
H1016       H  0.13472637  0.91856361  0.34283026     0.33070
H1017       H  0.27771046  0.05375785  0.14788000     0.37060
H1018       H  0.15878212  0.07245753  0.16793240     0.29800
H1019       H  0.34532719  0.85574590  0.28779497     0.34030
H1020       H  0.22490156  0.87266650  0.32298616     0.36880
H1021       H  0.33095528  0.05183203  0.30539760     0.29490
H1022       H  0.12630194  0.04452549  0.17603294     0.42360
H1023       H  0.28955626  0.90005996  0.12688118     0.32420
H1024       H  0.31725874  0.96151629  0.11884583     0.40030
H1025       H  0.15882289  0.95269977  0.35891483     0.31890
H1026       H  0.17062248  0.85861590  0.17036888     0.31950
H1027       H  0.31463967  0.85396203  0.31949974     0.32210
Zr1028     Zr  0.03736174  0.16508138  0.19105055     2.17510
O1029       O  0.06823048  0.11883146  0.14840910    -0.50140
O1030       O  0.10146561  0.18354381  0.21047767    -0.73350
O1031       O  0.02955689  0.18775493  0.12110473    -0.80130
O1032       O  0.97225123  0.11280473  0.23020692    -0.81880
O1033       O  0.04509532  0.24682380  0.13501008    -0.77500
O1034       O  0.02902266  0.09816046  0.21570244    -0.89140
O1035       O  0.10002927  0.18691977  0.27498118    -0.75100
O1036       O  0.05484370  0.22831472  0.21228837    -0.84590
O1037       O  0.03610897  0.16801025  0.26139725    -0.84280
O1038       O  0.98735982  0.20617075  0.17052211    -0.71040
O1039       O  0.97650123  0.15304206  0.21514225    -0.83170
Zr1040     Zr  0.94567068  0.26231019  0.27760112     2.26420
Zr1041     Zr  0.00756027  0.26888936  0.18784807     2.06270
Zr1042     Zr  0.97517346  0.15584820  0.28428025     2.10050
Zr1043     Zr  0.05301882  0.23182373  0.28137297     1.78760
O1044       O  0.93405737  0.10520207  0.30419426    -0.91970
O1045       O  0.09469643  0.28020742  0.25714011    -0.39780
O1046       O  0.99232555  0.21974187  0.30071099    -0.76420
O1047       O  0.00856612  0.27438702  0.25725177    -0.95100
O1048       O  0.94599845  0.25457395  0.20848455    -0.88410
O1049       O  0.92859196  0.19770528  0.26182020    -0.91250
C1050       C  0.11736121  0.18879449  0.24393713     1.02500
C1051       C  0.99773400  0.08835348  0.23009475     1.15430
C1052       C  0.03084868  0.22327415  0.11125629     1.06210
O1053       O  0.05995739  0.31199309  0.18810498    -0.93400
O1054       O  0.96158774  0.31542179  0.20001785    -0.89150
O1055       O  0.96524805  0.32882557  0.26199885    -0.82290
C1056       C  0.97133338  0.33817762  0.22678838     1.12850
O1057       O  0.92111460  0.15254399  0.13300951    -0.95380
Zr1058     Zr  0.92920686  0.19063393  0.19256669     1.88940
O1059       O  0.88240839  0.26040181  0.24788145    -0.72030
O1060       O  0.98681760  0.31309658  0.13929996    -0.51290
O1061       O  0.89969925  0.22891095  0.14333388    -0.95970
O1062       O  0.89920189  0.12905872  0.19854117    -0.53190
O1063       O  0.87352876  0.20247240  0.21962451    -0.72540
C1064       C  0.86247709  0.23495624  0.22960783     0.99800
O1065       O  0.91072077  0.30254451  0.32291241    -0.61360
O1066       O  0.01462207  0.12864770  0.33467461    -0.56170
O1067       O  0.95468795  0.23775570  0.34483724    -0.92850
O1068       O  0.93490894  0.17940454  0.33384937    -0.91270
O1069       O  0.07825277  0.21396208  0.34378779    -0.91630
O1070       O  0.06333306  0.27873350  0.33365742    -0.90410
C1071       C  0.95106037  0.20312272  0.35610637     1.18640
H1072       H  0.05158733  0.14765246  0.27021475     0.34590
H1073       H  0.01845611  0.29774960  0.26748972     0.45440
H1074       H  0.90577472  0.19075016  0.27408733     0.38970
H1075       H  0.97724577  0.20543529  0.14502735     0.35450
H1076       H  0.11034261  0.28878619  0.27926614     0.27230
H1077       H  0.00918604  0.32147790  0.12574425     0.33170
H1078       H  0.91801931  0.24864999  0.13720250     0.39080
H1079       H  0.07102298  0.18707096  0.34655451     0.33540
H1080       H  0.00578466  0.10270325  0.33948724     0.32420
H1081       H  0.94834806  0.08860326  0.32139781     0.34100
H1082       H  0.87345826  0.13270468  0.18941736     0.33070
H1083       H  0.04114753  0.29529336  0.33358691     0.37060
H1084       H  0.92966516  0.31802295  0.33683661     0.29800
H1085       H  0.08666000  0.13379746  0.13430287     0.34030
H1086       H  0.89506648  0.15636053  0.12497574     0.36880
H1087       H  0.04020845  0.12534442  0.32546724     0.29490
H1088       H  0.89751696  0.32082265  0.30645887     0.42360
H1089       H  0.08097541  0.29683766  0.17775834     0.32420
H1090       H  0.11189430  0.26719876  0.23895443     0.40030
H1091       H  0.89684128  0.12580332  0.22679313     0.31890
H1092       H  0.97186191  0.29823190  0.12026728     0.31950
H1093       H  0.04940597  0.11161729  0.12862444     0.32210
C1094       C  0.27369677  0.23403978  0.25003367    -0.01300
C1095       C  0.62013680  0.09262892  0.12562705    -0.01300
C1096       C  0.62821973  0.60107819  0.63588613    -0.01300
C1097       C  0.17994201  0.18849787  0.22023908     0.24780
C1098       C  0.15560288  0.20157686  0.24751307    -0.23320
C1099       C  0.16866126  0.22468228  0.27915938     0.19690
C1100       C  0.20583588  0.23649299  0.28130154     0.24730
C1101       C  0.23081880  0.22475738  0.25207108    -0.23270
C1102       C  0.21645461  0.19739282  0.22401789     0.19630
F1103       F  0.23763660  0.17544111  0.20099667    -0.13230
F1104       F  0.16919746  0.16343583  0.19160276    -0.15590
F1105       F  0.21748392  0.25446413  0.31430095    -0.15590
F1106       F  0.14582848  0.23511768  0.30861850    -0.13230
C1107       C  0.25225695  0.14707141  0.29555586     0.24780
C1108       C  0.25268214  0.12374229  0.26155419    -0.23320
C1109       C  0.28203744  0.12958125  0.23580594     0.19690
C1110       C  0.30112662  0.16447385  0.23730692     0.24730
C1111       C  0.28881791  0.19387496  0.26287784    -0.23270
C1112       C  0.27374405  0.18030460  0.29770123     0.19630
F1113       F  0.27038138  0.20392376  0.32924265    -0.13230
F1114       F  0.22936792  0.13940097  0.32530634    -0.15590
F1115       F  0.33443454  0.16645871  0.21996177    -0.15590
F1116       F  0.29150881  0.10250546  0.20906448    -0.13230
C1117       C  0.22360538  0.26556639  0.16457075     0.24780
C1118       C  0.22765753  0.23190010  0.14164679    -0.23320
C1119       C  0.26210864  0.21259509  0.14584099     0.19690
C1120       C  0.28726677  0.22337770  0.17573273     0.24730
C1121       C  0.27583296  0.24765959  0.20650931    -0.23270
C1122       C  0.24873372  0.27462326  0.19484853     0.19630
F1123       F  0.24223448  0.30652241  0.21639977    -0.13230
F1124       F  0.19465965  0.28937765  0.15843795    -0.15590
F1125       F  0.32287520  0.21206192  0.17292761    -0.15590
F1126       F  0.26942797  0.17947302  0.12663271    -0.13230
C1127       C  0.99602329  0.29450972  0.03644166     0.24780
C1128       C  0.96529297  0.27621836  0.01845966    -0.23320
C1129       C  0.94791475  0.25170011  0.04513976     0.19690
C1130       C  0.96999053  0.23053243  0.07130586     0.24730
C1131       C  0.00728554  0.24088785  0.07952538    -0.23270
C1132       C  0.01850012  0.27570749  0.06365389     0.19630
F1133       F  0.05061600  0.29243667  0.07533386    -0.13230
F1134       F  0.00064819  0.33243320  0.03301817    -0.15590
F1135       F  0.95566661  0.19801416  0.08460140    -0.15590
F1136       F  0.91251009  0.24054167  0.03857019    -0.13230
C1137       C  0.06477911  0.27759106  0.97423789     0.24780
C1138       C  0.07364547  0.24080951  0.95983084    -0.23320
C1139       C  0.05076297  0.22548797  0.93012710     0.19690
C1140       C  0.01543581  0.24102392  0.92395066     0.24730
C1141       C  0.00205247  0.27026556  0.94968933    -0.23270
C1142       C  0.03037997  0.29375889  0.96473549     0.19630
F1143       F  0.02495651  0.33173416  0.96920526    -0.13230
F1144       F  0.08831924  0.29719872  0.99791373    -0.15590
F1145       F  0.99231193  0.22199539  0.89937297    -0.15590
F1146       F  0.06104168  0.19354803  0.90987567    -0.13230
C1147       C  0.00031639  0.01354839  0.30708393     0.24780
C1148       C  0.97048213  0.98970883  0.29471878    -0.23320
C1149       C  0.94274358  0.00924570  0.27391939     0.19690
C1150       C  0.95326183  0.03913690  0.25035828     0.24730
C1151       C  0.98947514  0.05434061  0.25262172    -0.23270
C1152       C  0.01134757  0.04401993  0.28428391     0.19630
F1153       F  0.04350400  0.06230790  0.29249219    -0.13230
F1154       F  0.01452210  0.01195948  0.34331386    -0.15590
F1155       F  0.92854477  0.05193360  0.22397187    -0.15590
F1156       F  0.90929784  0.99279381  0.26736409    -0.13230
C1157       C  0.03525290  0.94118371  0.32326695     0.24780
C1158       C  0.01368933  0.92714582  0.29255887    -0.23320
C1159       C  0.03489586  0.90907859  0.26225647     0.19690
C1160       C  0.06937044  0.92474349  0.25264979     0.24730
C1161       C  0.08471391  0.95342149  0.27692679    -0.23270
C1162       C  0.06978236  0.95725133  0.31490130     0.19630
F1163       F  0.08689715  0.97874119  0.34290552    -0.13230
F1164       F  0.02061885  0.94478178  0.35928566    -0.15590
F1165       F  0.08478931  0.91558620  0.21787772    -0.15590
F1166       F  0.01873165  0.88487565  0.23598059    -0.13230
C1167       C  0.99425621  0.16622199  0.00765289     0.24780
C1168       C  0.96422021  0.14295913  0.00252644    -0.23320
C1169       C  0.93192656  0.15726611  0.98477298     0.19690
C1170       C  0.93043314  0.19562669  0.97285457     0.24730
C1171       C  0.96244521  0.21899769  0.97586213    -0.23270
C1172       C  0.99382318  0.20206972  0.99404767     0.19630
F1173       F  0.02308691  0.22238871  0.00582642    -0.13230
F1174       F  0.02518711  0.15388324  0.02628121    -0.15590
F1175       F  0.89724216  0.21014266  0.96230086    -0.15590
F1176       F  0.90218524  0.13435198  0.97899393    -0.13230
C1177       C  0.00343479  0.97604204  0.18240590     0.24780
C1178       C  0.97669380  0.96197287  0.15791970    -0.23320
C1179       C  0.94702742  0.94070765  0.17272682     0.19690
C1180       C  0.94529325  0.93321574  0.21291079     0.24730
C1181       C  0.97323603  0.94732957  0.23824512    -0.23270
C1182       C  0.00173929  0.96934893  0.22088017     0.19630
F1183       F  0.02924354  0.98578987  0.24124936    -0.13230
F1184       F  0.03165176  0.99750984  0.16903751    -0.15590
F1185       F  0.91612544  0.91373975  0.22660181    -0.15590
F1186       F  0.92030368  0.92701673  0.14843354    -0.13230
C1187       C  0.19830163  0.97860486  0.98564510     0.24780
C1188       C  0.23425761  0.96731031  0.97168210    -0.23320
C1189       C  0.25926929  0.99731432  0.96558383     0.19690
C1190       C  0.24755155  0.03536234  0.96861742     0.24730
C1191       C  0.21104997  0.04526485  0.97917096    -0.23270
C1192       C  0.18681264  0.01655010  0.98826925     0.19630
F1193       F  0.15200295  0.02510568  0.00015638    -0.13230
F1194       F  0.17475945  0.95296469  0.00014217    -0.15590
F1195       F  0.27266734  0.06296650  0.96260896    -0.15590
F1196       F  0.29596294  0.99059273  0.96092391    -0.13230
C1197       C  0.19348772  0.91642719  0.92551697     0.24780
C1198       C  0.21523685  0.90000260  0.95464765    -0.23320
C1199       C  0.19987440  0.86703819  0.97013481     0.19690
C1200       C  0.16189052  0.86646431  0.97689104     0.24730
C1201       C  0.14004101  0.89398178  0.95948834    -0.23270
C1202       C  0.15539380  0.91483759  0.92915271     0.19630
F1203       F  0.13435832  0.93826800  0.90740117    -0.13230
F1204       F  0.20792531  0.94116600  0.90037437    -0.15590
F1205       F  0.14703097  0.83960748  0.99927612    -0.15590
F1206       F  0.22081555  0.83610144  0.97765780    -0.13230
C1207       C  0.19871894  0.91545937  0.07002157     0.24780
C1208       C  0.20452697  0.95264831  0.08507691    -0.23320
C1209       C  0.23613000  0.97174549  0.07153365     0.19690
C1210       C  0.25982452  0.95403581  0.04378114     0.24730
C1211       C  0.24800903  0.92129131  0.02171665    -0.23270
C1212       C  0.22249722  0.89911978  0.04217990     0.19630
F1213       F  0.22628424  0.86086864  0.04252868    -0.13230
F1214       F  0.17152821  0.89347148  0.08424939    -0.15590
F1215       F  0.29122069  0.97224981  0.03399997    -0.15590
F1216       F  0.24455005  0.00731432  0.08498288    -0.13230
C1217       C  0.99354880  0.14026474  0.43419805     0.24780
C1218       C  0.01463154  0.16773445  0.45440969    -0.23320
C1219       C  0.02984840  0.19541069  0.42968977     0.19690
C1220       C  0.00905758  0.20725606  0.39762728     0.24730
C1221       C  0.97665721  0.18761454  0.38633917    -0.23270
C1222       C  0.97157500  0.15134495  0.40239734     0.19630
F1223       F  0.94494630  0.12744000  0.38859537    -0.13230
F1224       F  0.99208406  0.10427389  0.44721075    -0.15590
F1225       F  0.01775084  0.24070682  0.38159992    -0.15590
F1226       F  0.05807571  0.21807882  0.44197684    -0.13230
C1227       C  0.97469641  0.28023838  0.47677379     0.24780
C1228       C  0.99425483  0.30265254  0.50276575    -0.23320
C1229       C  0.02065988  0.28575659  0.52756291     0.19690
C1230       C  0.02637578  0.24633459  0.52673212     0.24730
C1231       C  0.00638209  0.22308718  0.50025949    -0.23270
C1232       C  0.98012566  0.24180359  0.47588223     0.19630
F1233       F  0.95749809  0.22277496  0.45136520    -0.13230
F1234       F  0.94838433  0.29509665  0.45325852    -0.15590
F1235       F  0.04904491  0.23161386  0.55383707    -0.15590
F1236       F  0.04087990  0.30721655  0.55302998    -0.13230
C1237       C  0.05310750  0.42856699  0.32061103     0.24780
C1238       C  0.02142616  0.44382138  0.33914368    -0.23320
C1239       C  0.01029401  0.48058009  0.32779646     0.19690
C1240       C  0.02877845  0.49892913  0.29769072     0.24730
C1241       C  0.04925961  0.47656770  0.27029546    -0.23270
C1242       C  0.06775201  0.44574499  0.28769989     0.19630
F1243       F  0.10254974  0.43606704  0.27712945    -0.13230
F1244       F  0.07047018  0.39759742  0.33478434    -0.15590
F1245       F  0.01783315  0.53457290  0.28872379    -0.15590
F1246       F  0.98049521  0.49830973  0.34349325    -0.13230
C1247       C  0.00674566  0.42629429  0.17724240     0.24780
C1248       C  0.03701157  0.43684176  0.20207839    -0.23320
C1249       C  0.05440247  0.40510285  0.21764829     0.19690
C1250       C  0.03299048  0.37438362  0.22953477     0.24730
C1251       C  0.99625688  0.36991750  0.21548218    -0.23270
C1252       C  0.98564884  0.39374316  0.18516471     0.19630
F1253       F  0.95305235  0.38803040  0.16622070    -0.13230
F1254       F  0.99231430  0.45126988  0.15220112    -0.15590
F1255       F  0.04848069  0.35041662  0.25480504    -0.15590
F1256       F  0.09175010  0.40243889  0.21800617    -0.13230
C1257       C  0.58999468  0.01035565  0.19675458     0.24780
C1258       C  0.55070749  0.00807624  0.19367833    -0.23320
C1259       C  0.53493709  0.03463903  0.16855874     0.19690
C1260       C  0.55682794  0.05613122  0.14357735     0.24730
C1261       C  0.59562200  0.06325004  0.15048391    -0.23270
C1262       C  0.61128559  0.03813335  0.17765149     0.19630
F1263       F  0.64805717  0.03758562  0.18406540    -0.13230
F1264       F  0.60872800  0.98599993  0.21922666    -0.15590
F1265       F  0.53916974  0.06725691  0.11104408    -0.15590
F1266       F  0.49820329  0.04210643  0.16868993    -0.13230
C1267       C  0.46624496  0.95971801  0.24923317     0.24780
C1268       C  0.48460358  0.97599484  0.21716983    -0.23320
C1269       C  0.46492391  0.97337998  0.18149838     0.19690
C1270       C  0.42779340  0.96075844  0.18032927     0.24730
C1271       C  0.41018493  0.94787125  0.21408142    -0.23270
C1272       C  0.43053238  0.94696381  0.24807484     0.19630
F1273       F  0.41660273  0.93242509  0.28097973    -0.13230
F1274       F  0.48444456  0.95094533  0.28165079    -0.15590
F1275       F  0.40975843  0.95963942  0.14577130    -0.15590
F1276       F  0.48222560  0.97794636  0.14724920    -0.13230
C1277       C  0.48237865  0.02900935  0.30882670     0.24780
C1278       C  0.49778238  0.00256054  0.33428099    -0.23320
C1279       C  0.53391497  0.98973273  0.32688306     0.19690
C1280       C  0.55111845  0.99974880  0.29287336     0.24730
C1281       C  0.52922321  0.00977935  0.26144613    -0.23270
C1282       C  0.49859294  0.03328947  0.27215239     0.19630
F1283       F  0.47990200  0.05284414  0.24497899    -0.13230
F1284       F  0.44952536  0.04598908  0.31690466    -0.15590
F1285       F  0.58829941  0.99873641  0.29040391    -0.15590
F1286       F  0.55131528  0.96468954  0.34961832    -0.13230
C1287       C  0.42076893  0.18236604  0.51015289     0.24780
C1288       C  0.44156311  0.19838384  0.47988162    -0.23320
C1289       C  0.46750012  0.17160662  0.46388627     0.19690
C1290       C  0.48443713  0.14418580  0.48777657     0.24730
C1291       C  0.46916140  0.13475079  0.52394172    -0.23270
C1292       C  0.43489948  0.15246228  0.53262526     0.19630
F1293       F  0.41367914  0.13942352  0.56157177    -0.13230
F1294       F  0.38414389  0.18965197  0.51303575    -0.15590
F1295       F  0.51691490  0.12892908  0.47600759    -0.15590
F1296       F  0.48299961  0.17815296  0.42903789    -0.13230
C1297       C  0.39846953  0.25249628  0.42364239     0.24780
C1298       C  0.43198557  0.26515681  0.44172587    -0.23320
C1299       C  0.44131087  0.30339386  0.43301595     0.19690
C1300       C  0.41932854  0.32686721  0.40878027     0.24730
C1301       C  0.38666413  0.31391030  0.38933705    -0.23270
C1302       C  0.37650406  0.27597468  0.39895487     0.19630
F1303       F  0.34387043  0.26135165  0.38616032    -0.13230
F1304       F  0.38511094  0.21756162  0.43124997    -0.15590
F1305       F  0.43096521  0.36304601  0.40451799    -0.15590
F1306       F  0.47212903  0.31935985  0.44856080    -0.13230
C1307       C  0.35420008  0.28453882  0.30959754     0.24780
C1308       C  0.33834155  0.31598391  0.33029009    -0.23320
C1309       C  0.30138221  0.32454379  0.31835695     0.19690
C1310       C  0.27985991  0.29925773  0.29418313     0.24730
C1311       C  0.29476287  0.26498210  0.27746867    -0.23270
C1312       C  0.33356630  0.26074688  0.28367671     0.19630
F1313       F  0.35258257  0.23303212  0.26415665    -0.13230
F1314       F  0.39030803  0.27567008  0.31460691    -0.15590
F1315       F  0.24480733  0.31027265  0.28639750    -0.15590
F1316       F  0.28572210  0.35842371  0.32851329    -0.13230
C1317       C  0.37544871  0.40273273  0.31920732     0.24780
C1318       C  0.38810192  0.36770014  0.33435054    -0.23320
C1319       C  0.42423640  0.35746122  0.32128674     0.19690
C1320       C  0.44661750  0.38141690  0.29819133     0.24730
C1321       C  0.43581042  0.41878577  0.28653840    -0.23270
C1322       C  0.39879173  0.42813974  0.29867810     0.19630
F1323       F  0.38396942  0.46268740  0.29217794    -0.13230
F1324       F  0.34002499  0.41393475  0.32550324    -0.15590
F1325       F  0.48015204  0.36704961  0.28889271    -0.15590
F1326       F  0.43937259  0.32374799  0.33097976    -0.13230
C1327       C  0.46709622  0.44130840  0.15546060     0.24780
C1328       C  0.49050633  0.47269751  0.14763915    -0.23320
C1329       C  0.51014279  0.48942211  0.17717174     0.19690
C1330       C  0.50262345  0.47983589  0.21440234     0.24730
C1331       C  0.47525674  0.45188545  0.22465874    -0.23270
C1332       C  0.45904083  0.43121885  0.19384091     0.19630
F1333       F  0.43483687  0.40283799  0.20052686    -0.13230
F1334       F  0.45264624  0.41999075  0.12602426    -0.15590
F1335       F  0.52122052  0.50088765  0.24092385    -0.15590
F1336       F  0.53373816  0.51853100  0.17056767    -0.13230
C1337       C  0.20828328  0.47560637  0.50637515     0.24780
C1338       C  0.22246122  0.45502647  0.47280508    -0.23320
C1339       C  0.19962389  0.45637571  0.43963731     0.19690
C1340       C  0.16591727  0.47787209  0.44053524     0.24730
C1341       C  0.15321197  0.49722923  0.47515799    -0.23270
C1342       C  0.17536885  0.49525845  0.50751542     0.19630
F1343       F  0.16620313  0.51402293  0.54111909    -0.13230
F1344       F  0.22776730  0.48060567  0.53913964    -0.15590
F1345       F  0.14593924  0.47949087  0.40737944    -0.15590
F1346       F  0.21056287  0.43900840  0.40605601    -0.13230
C1347       C  0.27713819  0.37857965  0.42773439     0.24780
C1348       C  0.28786576  0.41516327  0.44268046    -0.23320
C1349       C  0.32536450  0.42454447  0.43261611     0.19690
C1350       C  0.34773730  0.40199445  0.40702946     0.24730
C1351       C  0.33622791  0.36651663  0.39052615    -0.23270
C1352       C  0.30129614  0.35428902  0.40498263     0.19630
F1353       F  0.28977159  0.31821645  0.39717797    -0.13230
F1354       F  0.24311278  0.36513698  0.43523766    -0.15590
F1355       F  0.38207007  0.41529703  0.39993022    -0.15590
F1356       F  0.34275965  0.45520019  0.44887727    -0.13230
C1357       C  0.95703519  0.64387382  0.50755599     0.24780
C1358       C  0.98659634  0.63258053  0.48372683    -0.23320
C1359       C  0.98879760  0.64817461  0.44668907     0.19690
C1360       C  0.96647276  0.67919387  0.43734548     0.24730
C1361       C  0.94759477  0.69893574  0.46785193    -0.23270
C1362       C  0.93545692  0.67507064  0.49745233     0.19630
F1363       F  0.90071327  0.67736125  0.51161069    -0.13230
F1364       F  0.94979389  0.62624374  0.54102434    -0.15590
F1365       F  0.97287710  0.69640117  0.40337150    -0.15590
F1366       F  0.01494142  0.63600411  0.42107808    -0.13230
C1367       C  0.70567796  0.92779894  0.47670492     0.24780
C1368       C  0.72918891  0.95980420  0.47860420    -0.23320
C1369       C  0.71227765  0.99407117  0.49356846     0.19690
C1370       C  0.67568118  0.99730287  0.50328964     0.24730
C1371       C  0.65599345  0.96471508  0.50910950    -0.23270
C1372       C  0.67106881  0.92953769  0.49504497     0.19630
F1373       F  0.65431445  0.89614839  0.50204956    -0.13230
F1374       F  0.71847722  0.89308525  0.46497377    -0.15590
F1375       F  0.66283064  0.03180804  0.51603852    -0.15590
F1376       F  0.73165568  0.02131994  0.51144803    -0.13230
C1377       C  0.89494539  0.91489463  0.35709994     0.24780
C1378       C  0.89191860  0.87481795  0.35151806    -0.23320
C1379       C  0.91681023  0.85870166  0.32357490     0.19690
C1380       C  0.94083217  0.88112659  0.30099679     0.24730
C1381       C  0.94361779  0.92124272  0.30612022    -0.23270
C1382       C  0.92017859  0.93706247  0.33586522     0.19630
F1383       F  0.92192281  0.97437095  0.34663824    -0.13230
F1384       F  0.87487298  0.93364284  0.38464008    -0.15590
F1385       F  0.96200032  0.86276639  0.27418034    -0.15590
F1386       F  0.91700316  0.82048970  0.31683058    -0.13230
C1387       C  0.89063401  0.77887654  0.39379032     0.24780
C1388       C  0.89234217  0.81920163  0.39733138    -0.23320
C1389       C  0.92299332  0.83256544  0.42033819     0.19690
C1390       C  0.94584892  0.80796648  0.44262049     0.24730
C1391       C  0.93989845  0.76809778  0.44380034    -0.23270
C1392       C  0.91136093  0.75464730  0.41783387     0.19630
F1393       F  0.90171325  0.71748447  0.41494243    -0.13230
F1394       F  0.87016467  0.76119543  0.36580552    -0.15590
F1395       F  0.97329462  0.82401651  0.46422281    -0.15590
F1396       F  0.93013835  0.87040949  0.42297763    -0.13230
C1397       C  0.84421843  0.87561980  0.44730457     0.24780
C1398       C  0.83889026  0.87233088  0.40602893    -0.23320
C1399       C  0.80664705  0.89192437  0.39308172     0.19690
C1400       C  0.78235348  0.91214090  0.41865932     0.24730
C1401       C  0.79144876  0.92084354  0.45806353    -0.23270
C1402       C  0.82311924  0.90117443  0.47156827     0.19630
F1403       F  0.83419113  0.90614735  0.50894718    -0.13230
F1404       F  0.86955066  0.85441450  0.46582059    -0.15590
F1405       F  0.74897762  0.92240113  0.40417783    -0.15590
F1406       F  0.79761300  0.89159404  0.35492979    -0.13230
C1407       C  0.80906105  0.80053325  0.35928556     0.24780
C1408       C  0.83601794  0.82627253  0.34584708    -0.23320
C1409       C  0.83238349  0.83361777  0.30550696     0.19690
C1410       C  0.80704368  0.81406585  0.28044854     0.24730
C1411       C  0.78105901  0.78650211  0.29332410    -0.23270
C1412       C  0.78390299  0.78037796  0.33405719     0.19630
F1413       F  0.76409535  0.75303086  0.35055094    -0.13230
F1414       F  0.80784444  0.79340406  0.39768150    -0.15590
F1415       F  0.80861372  0.82408030  0.24295203    -0.15590
F1416       F  0.85073658  0.86258243  0.28932561    -0.13230
C1417       C  0.54737116  0.21226997  0.51779950     0.24780
C1418       C  0.57074071  0.21541030  0.48664463    -0.23320
C1419       C  0.55673173  0.23416402  0.45329683     0.19690
C1420       C  0.51975360  0.24669315  0.45048775     0.24730
C1421       C  0.49509307  0.24103489  0.48093245    -0.23270
C1422       C  0.51071085  0.22392187  0.51485555     0.19630
F1423       F  0.48898098  0.21178120  0.54331093    -0.13230
F1424       F  0.55882041  0.19467983  0.55027401    -0.15590
F1425       F  0.50771175  0.26015775  0.41626827    -0.15590
F1426       F  0.57835751  0.23970277  0.42221663    -0.13230
C1427       C  0.75336743  0.04127663  0.43036762     0.24780
C1428       C  0.75762554  0.06457416  0.46381054    -0.23320
C1429       C  0.78863619  0.05727739  0.48774042     0.19690
C1430       C  0.80638999  0.02159566  0.48391770     0.24730
C1431       C  0.78872368  0.99240996  0.46241961    -0.23270
C1432       C  0.77119866  0.00606904  0.42858660     0.19630
F1433       F  0.76917618  0.98547843  0.39511380    -0.13230
F1434       F  0.72946784  0.05041085  0.40162177    -0.15590
F1435       F  0.84069959  0.01597260  0.49878570    -0.15590
F1436       F  0.79805419  0.08137232  0.51737928    -0.13230
C1437       C  0.92076954  0.21681568  0.54187238     0.24780
C1438       C  0.89882453  0.21391888  0.50793881    -0.23320
C1439       C  0.90564247  0.18277508  0.48255180     0.19690
C1440       C  0.93629970  0.15930156  0.48842577     0.24730
C1441       C  0.96529946  0.17162503  0.51328847    -0.23270
C1442       C  0.95281351  0.19414653  0.54562651     0.19630
F1443       F  0.97577187  0.20116901  0.57619986    -0.13230
F1444       F  0.91267037  0.24318009  0.57005984    -0.15590
F1445       F  0.93396433  0.12279903  0.47528993    -0.15590
F1446       F  0.88361566  0.17513414  0.45151022    -0.13230
C1447       C  0.69598337  0.23433458  0.72750255     0.24780
C1448       C  0.73212231  0.24881948  0.73817589    -0.23320
C1449       C  0.75983973  0.24367866  0.70998912     0.19690
C1450       C  0.75096904  0.22722968  0.67301857     0.24730
C1451       C  0.71439918  0.21508854  0.66354179    -0.23270
C1452       C  0.68786405  0.21793134  0.69169229     0.19630
F1453       F  0.65258358  0.20736526  0.68350217    -0.13230
F1454       F  0.66675664  0.23667303  0.75162903    -0.15590
F1455       F  0.77812804  0.22390312  0.64627525    -0.15590
F1456       F  0.79528791  0.25361018  0.71804196    -0.13230
C1457       C  0.75121776  0.99691049  0.57995782     0.24780
C1458       C  0.72179031  0.97234157  0.58824185    -0.23320
C1459       C  0.72492778  0.93489472  0.57183055     0.19690
C1460       C  0.75365342  0.92455891  0.54553860     0.24730
C1461       C  0.77561846  0.95297760  0.52855700    -0.23270
C1462       C  0.77951081  0.98550885  0.55385548     0.19630
F1463       F  0.81237070  0.00315556  0.55832659    -0.13230
F1464       F  0.75272413  0.03254536  0.59600209    -0.15590
F1465       F  0.75437252  0.88851749  0.53049410    -0.15590
F1466       F  0.69877227  0.90859711  0.57890712    -0.13230
C1467       C  0.75726379  0.16390942  0.77222188     0.24780
C1468       C  0.72092103  0.14940723  0.76981421    -0.23320
C1469       C  0.69373138  0.16832954  0.79162339     0.19690
C1470       C  0.70079749  0.20471369  0.80820950     0.24730
C1471       C  0.73472823  0.22360380  0.80042133    -0.23270
C1472       C  0.76451361  0.19896739  0.79047779     0.19630
F1473       F  0.79961981  0.21230929  0.78861318    -0.13230
F1474       F  0.78594745  0.14528384  0.75486771    -0.15590
F1475       F  0.67301220  0.22172393  0.82815920    -0.15590
F1476       F  0.66047463  0.15180391  0.79675336    -0.13230
C1477       C  0.80642086  0.21778366  0.19194092     0.24780
C1478       C  0.82347072  0.23902701  0.22265355    -0.23320
C1479       C  0.80299008  0.25187353  0.25321860     0.19690
C1480       C  0.76698252  0.24106775  0.25564020     0.24730
C1481       C  0.74880149  0.21646060  0.22757609    -0.23270
C1482       C  0.76949268  0.20653411  0.19428825     0.19630
F1483       F  0.75401677  0.18895735  0.16277473    -0.13230
F1484       F  0.82632216  0.20609923  0.16056604    -0.15590
F1485       F  0.74960326  0.25961250  0.28418956    -0.15590
F1486       F  0.81830811  0.27332292  0.28253533    -0.13230
C1487       C  0.65386546  0.19058312  0.18002975     0.24780
C1488       C  0.68616916  0.18141486  0.20103975    -0.23320
C1489       C  0.69861918  0.14315437  0.19367831     0.19690
C1490       C  0.67765588  0.11535379  0.17169960     0.24730
C1491       C  0.64377970  0.12400890  0.15229802    -0.23270
C1492       C  0.63651435  0.16457986  0.15369080     0.19630
F1493       F  0.61649189  0.18222161  0.12627343    -0.13230
F1494       F  0.63927762  0.22614357  0.18230215    -0.15590
F1495       F  0.69451406  0.08147001  0.16458680    -0.15590
F1496       F  0.73351512  0.13297449  0.20336371    -0.13230
C1497       C  0.68775030  0.22028297  0.30409207     0.24780
C1498       C  0.70072390  0.19665265  0.27341789    -0.23320
C1499       C  0.72602405  0.16875326  0.28644189     0.19690
C1500       C  0.75086294  0.17768304  0.31657968     0.24730
C1501       C  0.74573535  0.21100949  0.33957410    -0.23270
C1502       C  0.71158369  0.23021759  0.33535993     0.19630
F1503       F  0.70388838  0.26168107  0.35743821    -0.13230
F1504       F  0.65157143  0.22999557  0.30585914    -0.15590
F1505       F  0.77920198  0.15336596  0.32351183    -0.15590
F1506       F  0.72684742  0.13319916  0.27082703    -0.13230
C1507       C  0.71377615  0.66745854  0.23069639     0.24780
C1508       C  0.73724117  0.64224652  0.24766600    -0.23320
C1509       C  0.76770920  0.65679849  0.27004887     0.19690
C1510       C  0.77226976  0.69604458  0.27775261     0.24730
C1511       C  0.74804633  0.72192493  0.26080045    -0.23270
C1512       C  0.72033795  0.70567636  0.23522608     0.19630
F1513       F  0.70009024  0.72690368  0.21158167    -0.13230
F1514       F  0.68607793  0.65540578  0.20657340    -0.15590
F1515       F  0.80216447  0.70807937  0.29843370    -0.15590
F1516       F  0.79460596  0.63353165  0.28274737    -0.13230
C1517       C  0.52248088  0.46079338  0.31533951     0.24780
C1518       C  0.50539129  0.43932405  0.28567952    -0.23320
C1519       C  0.53118790  0.41890226  0.26106394     0.19690
C1520       C  0.56492838  0.43606985  0.25224796     0.24730
C1521       C  0.57666695  0.46811304  0.27390695    -0.23270
C1522       C  0.55736865  0.47695296  0.30881712     0.19630
F1523       F  0.57105475  0.50247398  0.33537824    -0.13230
F1524       F  0.50634374  0.46434638  0.35058123    -0.15590
F1525       F  0.58396888  0.42357061  0.22057940    -0.15590
F1526       F  0.51957770  0.39048932  0.23645917    -0.13230
C1527       C  0.73721285  0.30238221  0.19858336     0.24780
C1528       C  0.73826246  0.32131382  0.23549100    -0.23320
C1529       C  0.70832581  0.31339809  0.26030375     0.19690
C1530       C  0.68481803  0.28217032  0.25172831     0.24730
C1531       C  0.69425993  0.25502907  0.22235317    -0.23270
C1532       C  0.71213341  0.27225364  0.19077690     0.19630
F1533       F  0.71407911  0.25340944  0.15602054    -0.13230
F1534       F  0.76276158  0.31012052  0.17137423    -0.15590
F1535       F  0.65010667  0.28325726  0.26607523    -0.15590
F1536       F  0.70247046  0.33382416  0.29352311    -0.13230
C1537       C  0.93160075  0.51222632  0.23430155     0.24780
C1538       C  0.91460386  0.48002715  0.25121038    -0.23320
C1539       C  0.93675645  0.45028501  0.26161067     0.19690
C1540       C  0.97402166  0.45104183  0.25357130     0.24730
C1541       C  0.99188787  0.48073133  0.23268030    -0.23270
C1542       C  0.96967742  0.51269276  0.22544591     0.19630
F1543       F  0.98469565  0.54565375  0.21385163    -0.13230
F1544       F  0.91145713  0.54382345  0.22674959    -0.15590
F1545       F  0.99321740  0.42296078  0.26971507    -0.15590
F1546       F  0.92249756  0.41970651  0.27941048    -0.13230
C1547       C  0.79325784  0.49135249  0.56516822     0.24780
C1548       C  0.77569695  0.51436651  0.53711646    -0.23320
C1549       C  0.80080528  0.52741759  0.50884897     0.19690
C1550       C  0.83167611  0.50518320  0.49758712     0.24730
C1551       C  0.84074680  0.47226070  0.51777060    -0.23270
C1552       C  0.82312215  0.46785838  0.55388913     0.19630
F1553       F  0.83269938  0.43888219  0.57707734    -0.13230
F1554       F  0.77544629  0.48314200  0.59837166    -0.15590
F1555       F  0.85308586  0.51658759  0.46803420    -0.15590
F1556       F  0.79986930  0.56383639  0.49736736    -0.13230
C1557       C  0.73364103  0.54766663  0.46738708     0.24780
C1558       C  0.71897929  0.51654978  0.48629003    -0.23320
C1559       C  0.70315358  0.48856138  0.46042616     0.19690
C1560       C  0.71999088  0.48128017  0.42428762     0.24730
C1561       C  0.74794362  0.50556387  0.41133388    -0.23270
C1562       C  0.75054674  0.54161383  0.43088596     0.19630
F1563       F  0.77096865  0.57002233  0.41625408    -0.13230
F1564       F  0.73553711  0.58208269  0.48610283    -0.15590
F1565       F  0.71297529  0.44780847  0.40546833    -0.15590
F1566       F  0.67935325  0.46210412  0.47345632    -0.13230
C1567       C  0.71861783  0.55014391  0.59121007     0.24780
C1568       C  0.70571153  0.52630132  0.55992999    -0.23320
C1569       C  0.66634554  0.52356823  0.55778551     0.19690
C1570       C  0.64216523  0.54577225  0.58239702     0.24730
C1571       C  0.65545013  0.57258221  0.61096527    -0.23270
C1572       C  0.69445452  0.56951300  0.61737952     0.19630
F1573       F  0.71030568  0.58274767  0.65074570    -0.13230
F1574       F  0.75518070  0.55526437  0.59807232    -0.15590
F1575       F  0.60517655  0.54168058  0.57712291    -0.15590
F1576       F  0.65054397  0.49969759  0.53113602    -0.13230
C1577       C  0.75824752  0.44372098  0.49820256     0.24780
C1578       C  0.73459467  0.46096724  0.52702191    -0.23320
C1579       C  0.72208906  0.43705455  0.55627917     0.19690
C1580       C  0.73428381  0.39881294  0.55703082     0.24730
C1581       C  0.75827723  0.38353717  0.52797300    -0.23270
C1582       C  0.76952830  0.40663448  0.49875659     0.19630
F1583       F  0.79366811  0.39412493  0.47111046    -0.13230
F1584       F  0.77474100  0.46385937  0.47069388    -0.15590
F1585       F  0.72284901  0.37703436  0.58641141    -0.15590
F1586       F  0.70070831  0.45087366  0.58559257    -0.13230
C1587       C  0.50663574  0.66188176  0.99421245     0.24780
C1588       C  0.48137777  0.63876731  0.97505851    -0.23320
C1589       C  0.45171098  0.65487062  0.95433913     0.19690
C1590       C  0.44807690  0.69436015  0.95223412     0.24730
C1591       C  0.47508405  0.71818229  0.96966103    -0.23270
C1592       C  0.50357057  0.70040193  0.99189957     0.19630
F1593       F  0.53033343  0.72032633  0.01073281    -0.13230
F1594       F  0.53577172  0.64730545  0.01403335    -0.15590
F1595       F  0.41740086  0.70841650  0.93504311    -0.15590
F1596       F  0.42573642  0.63241427  0.93684865    -0.13230
C1597       C  0.42758022  0.96528155  0.69734221     0.24780
C1598       C  0.44036083  0.94060088  0.72635503    -0.23320
C1599       C  0.46834453  0.91497907  0.71361200     0.19690
C1600       C  0.49306559  0.92656233  0.68524736     0.24730
C1601       C  0.48654897  0.96037321  0.66501701    -0.23270
C1602       C  0.45182581  0.97760077  0.66899383     0.19630
F1603       F  0.44039796  0.00447258  0.64408799    -0.13230
F1604       F  0.39109182  0.97029786  0.69045397    -0.15590
F1605       F  0.52390645  0.90535516  0.67830627    -0.15590
F1606       F  0.47772223  0.88477280  0.73523081    -0.13230
C1607       C  0.51340378  0.94245241  0.79020705     0.24780
C1608       C  0.48472782  0.96408297  0.77376995    -0.23320
C1609       C  0.49684265  0.99556094  0.75128525     0.19690
C1610       C  0.53373440  0.00412480  0.74443795     0.24730
C1611       C  0.56153167  0.98253919  0.76012495    -0.23270
C1612       C  0.55103664  0.95184692  0.78390987     0.19630
F1613       F  0.57737683  0.92993086  0.80038526    -0.13230
F1614       F  0.50564424  0.91077940  0.80998933    -0.15590
F1615       F  0.54208990  0.03404146  0.72212858    -0.15590
F1616       F  0.47295231  0.01690275  0.73174003    -0.13230
C1617       C  0.31798137  0.90230004  0.89133603     0.24780
C1618       C  0.32921245  0.86434599  0.89840244    -0.23320
C1619       C  0.31347063  0.84844438  0.93185973     0.19690
C1620       C  0.29433739  0.87104036  0.95996777     0.24730
C1621       C  0.28153470  0.90836851  0.95250638    -0.23270
C1622       C  0.29268198  0.92222253  0.91586020     0.19630
F1623       F  0.27753953  0.95408593  0.90138475    -0.13230
F1624       F  0.32821225  0.91961551  0.85853031    -0.15590
F1625       F  0.28663407  0.85504061  0.99418116    -0.15590
F1626       F  0.31935472  0.81121390  0.93932174    -0.13230
C1627       C  0.39638464  0.83168911  0.93610789     0.24780
C1628       C  0.38738057  0.81987833  0.89712732    -0.23320
C1629       C  0.41235832  0.79312402  0.88052240     0.19690
C1630       C  0.43960493  0.77450942  0.90282520     0.24730
C1631       C  0.44521559  0.78288324  0.94310987    -0.23270
C1632       C  0.42406690  0.81391529  0.95799361     0.19630
F1633       F  0.43135066  0.82980110  0.99347754    -0.13230
F1634       F  0.38139585  0.86323133  0.95327407    -0.15590
F1635       F  0.45943678  0.74727761  0.88415338    -0.15590
F1636       F  0.41014429  0.78421526  0.84206649    -0.13230
C1637       C  0.40464276  0.89468462  0.85961182     0.24780
C1638       C  0.38044014  0.86638363  0.84349605    -0.23320
C1639       C  0.38197840  0.86274891  0.80238224     0.19690
C1640       C  0.40174772  0.88878192  0.77946301     0.24730
C1641       C  0.42533397  0.91787770  0.79582459    -0.23270
C1642       C  0.42745009  0.91785442  0.83683711     0.19630
F1643       F  0.45244256  0.93967739  0.85611845    -0.13230
F1644       F  0.40660658  0.90080663  0.89837427    -0.15590
F1645       F  0.39654996  0.88480758  0.74066557    -0.15590
F1646       F  0.36503665  0.83356485  0.78308275    -0.13230
C1647       C  0.65328995  0.77702546  0.23724096     0.24780
C1648       C  0.64223959  0.74144167  0.25081470    -0.23320
C1649       C  0.65807228  0.73064982  0.28617722     0.19690
C1650       C  0.68946027  0.74932124  0.30143305     0.24730
C1651       C  0.70859542  0.77660424  0.27889428    -0.23270
C1652       C  0.68359437  0.79616008  0.25474735     0.19630
F1653       F  0.68536629  0.83445072  0.25240979    -0.13230
F1654       F  0.63457899  0.79357871  0.20807956    -0.15590
F1655       F  0.70502291  0.73336668  0.33257378    -0.15590
F1656       F  0.64456943  0.70029777  0.30485588    -0.13230
C1657       C  0.43642288  0.53968626  0.22407170     0.24780
C1658       C  0.46703006  0.56203793  0.23587178    -0.23320
C1659       C  0.48144734  0.55461347  0.27323349     0.19690
C1660       C  0.47050370  0.52205224  0.29326869     0.24730
C1661       C  0.45019969  0.49262405  0.27420539    -0.23270
C1662       C  0.42676063  0.50660904  0.24391525     0.19630
F1663       F  0.40161546  0.48323966  0.22624665    -0.13230
F1664       F  0.41746131  0.54809887  0.19135399    -0.15590
F1665       F  0.47702049  0.52160098  0.33178115    -0.15590
F1666       F  0.50726225  0.57713741  0.29041281    -0.13230
C1667       C  0.49633569  0.78104854  0.04158143     0.24780
C1668       C  0.46840511  0.77070648  0.01415141    -0.23320
C1669       C  0.43787513  0.75141980  0.03041583     0.19690
C1670       C  0.44302368  0.72989691  0.06371272     0.24730
C1671       C  0.47696793  0.73097557  0.08397905    -0.23270
C1672       C  0.50238314  0.75906399  0.07423768     0.19630
F1673       F  0.53236313  0.76644709  0.09699481    -0.13230
F1674       F  0.51389115  0.81480914  0.04101363    -0.15590
F1675       F  0.41569729  0.70614625  0.07454485    -0.15590
F1676       F  0.40639428  0.74599531  0.00942252    -0.13230
C1677       C  0.50415674  0.88348060  0.22733134     0.24780
C1678       C  0.51134061  0.87989395  0.26723824    -0.23320
C1679       C  0.54236377  0.89990478  0.28203364     0.19690
C1680       C  0.55984390  0.92734076  0.25990944     0.24730
C1681       C  0.54296879  0.94088351  0.22596399    -0.23270
C1682       C  0.52309404  0.91117159  0.20594218     0.19630
F1683       F  0.51583101  0.91366873  0.16755840    -0.13230
F1684       F  0.47928021  0.86041141  0.20911777    -0.15590
F1685       F  0.59591957  0.93453923  0.26762830    -0.15590
F1686       F  0.55778424  0.89063143  0.31646587    -0.13230
C1687       C  0.27782071  0.80077602  0.79926453     0.24780
C1688       C  0.27862286  0.76013526  0.79949836    -0.23320
C1689       C  0.30632881  0.74532602  0.82442699     0.19690
C1690       C  0.32932867  0.76934288  0.84903887     0.24730
C1691       C  0.32940111  0.81016291  0.84725378    -0.23270
C1692       C  0.30149444  0.82445708  0.82237895     0.19630
F1693       F  0.29786390  0.86250685  0.81849572    -0.13230
F1694       F  0.25433937  0.81882916  0.77511607    -0.15590
F1695       F  0.35060139  0.75152595  0.87533621    -0.15590
F1696       F  0.31302081  0.70744158  0.82420461    -0.13230
C1697       C  0.98636532  0.76105703  0.57695585     0.24780
C1698       C  0.96296735  0.73257843  0.59074379    -0.23320
C1699       C  0.92730728  0.72976340  0.57348917     0.19690
C1700       C  0.92041523  0.74677039  0.53773511     0.24730
C1701       C  0.95057610  0.75962839  0.51680719    -0.23270
C1702       C  0.97896364  0.77641750  0.54053676     0.19630
F1703       F  0.00517889  0.79882265  0.52507974    -0.13230
F1704       F  0.01914956  0.76887305  0.59465061    -0.15590
F1705       F  0.88643941  0.74489003  0.52090140    -0.15590
F1706       F  0.90044021  0.70824408  0.58905635    -0.13230
C1707       C  0.19171052  0.74396366  0.80209357     0.24780
C1708       C  0.21322243  0.75545638  0.77053866    -0.23320
C1709       C  0.19172401  0.76405749  0.73742859     0.19690
C1710       C  0.15916357  0.74353669  0.72926289     0.24730
C1711       C  0.14636932  0.71708514  0.75599722    -0.23270
C1712       C  0.16140363  0.72001152  0.79396821     0.19630
F1713       F  0.14910382  0.69774743  0.82246473    -0.13230
F1714       F  0.20661124  0.74433375  0.83824627    -0.15590
F1715       F  0.14239573  0.74760339  0.69439440    -0.15590
F1716       F  0.19970320  0.79377373  0.71506487    -0.13230
C1717       C  0.26877562  0.43508233  0.58050938     0.24780
C1718       C  0.23118389  0.42527315  0.58686580    -0.23320
C1719       C  0.21450194  0.40111366  0.55896077     0.19690
C1720       C  0.23070614  0.39592844  0.52225939     0.24730
C1721       C  0.26368563  0.41617033  0.51285515    -0.23270
C1722       C  0.28577569  0.42587112  0.54481704     0.19630
F1723       F  0.32293204  0.42863263  0.54066715    -0.13230
F1724       F  0.28831022  0.45632253  0.60648541    -0.15590
F1725       F  0.20924080  0.37957278  0.49425147    -0.15590
F1726       F  0.18033878  0.38673575  0.56525766    -0.13230
C1727       C  0.22240355  0.63264368  0.80112063     0.24780
C1728       C  0.20717682  0.61723949  0.76579901    -0.23320
C1729       C  0.20669832  0.64024561  0.73437067     0.19690
C1730       C  0.22058443  0.67670320  0.73733973     0.24730
C1731       C  0.24023790  0.69239586  0.77056394    -0.23270
C1732       C  0.23941640  0.66917616  0.80333741     0.19630
F1733       F  0.25079348  0.68276564  0.83846358    -0.13230
F1734       F  0.21993986  0.61301825  0.83408417    -0.15590
F1735       F  0.21134516  0.69756236  0.70704322    -0.15590
F1736       F  0.19009392  0.62861134  0.70065900    -0.13230
C1737       C  0.26988259  0.53837498  0.51608686     0.24780
C1738       C  0.24785302  0.55252832  0.48616214    -0.23320
C1739       C  0.25259041  0.53643416  0.44866682     0.19690
C1740       C  0.27361760  0.50321154  0.44316209     0.24730
C1741       C  0.28258436  0.48157447  0.47607233    -0.23270
C1742       C  0.28933895  0.50418126  0.51014617     0.19630
F1743       F  0.31552045  0.49547349  0.53645520    -0.13230
F1744       F  0.27182864  0.55655462  0.55122709    -0.15590
F1745       F  0.27384226  0.48662982  0.40718021    -0.15590
F1746       F  0.23347074  0.55003725  0.41806634    -0.13230
C1747       C  0.25661181  0.73749791  0.66227348     0.24780
C1748       C  0.26323623  0.69785019  0.65852608    -0.23320
C1749       C  0.28816661  0.68245153  0.68556633     0.19690
C1750       C  0.29662719  0.70307765  0.72005594     0.24730
C1751       C  0.27548615  0.73618024  0.72975888    -0.23270
C1752       C  0.26449065  0.75692707  0.69758462     0.19630
F1753       F  0.26426094  0.79546860  0.69962695    -0.13230
F1754       F  0.24428436  0.75745297  0.63201387    -0.15590
F1755       F  0.31644313  0.68546684  0.74781056    -0.15590
F1756       F  0.30132224  0.64647573  0.68049875    -0.13230
C1757       C  0.01891420  0.71203847  0.50620214     0.24780
C1758       C  0.00347390  0.73533625  0.47636661    -0.23320
C1759       C  0.02756726  0.74371794  0.44614859     0.19690
C1760       C  0.06383117  0.72840399  0.44549417     0.24730
C1761       C  0.07806541  0.70574049  0.47624241    -0.23270
C1762       C  0.05484020  0.69854374  0.50647259     0.19630
F1763       F  0.06632112  0.67726605  0.53651925    -0.13230
F1764       F  0.99844805  0.69864597  0.53484667    -0.15590
F1765       F  0.08463129  0.73554061  0.41402122    -0.15590
F1766       F  0.01557164  0.76413739  0.41581445    -0.13230
C1767       C  0.48228169  0.75408328  0.50869214     0.24780
C1768       C  0.51228752  0.74043329  0.53252906    -0.23320
C1769       C  0.53999023  0.76734045  0.54132860     0.19690
C1770       C  0.53903585  0.80368023  0.52410330     0.24730
C1771       C  0.50978709  0.81451885  0.49838470    -0.23270
C1772       C  0.48073387  0.78990358  0.49322926     0.19630
F1773       F  0.45196521  0.79878804  0.46960222    -0.13230
F1774       F  0.45566672  0.73108743  0.49487034    -0.15590
F1775       F  0.56696685  0.82821074  0.53266083    -0.15590
F1776       F  0.56914477  0.75787119  0.56397418    -0.13230
C1777       C  0.57818373  0.65643406  0.62736911     0.24780
C1778       C  0.60294372  0.62920624  0.60995807    -0.23320
C1779       C  0.60158911  0.62862961  0.56895684     0.19690
C1780       C  0.57344791  0.64746867  0.54770757     0.24730
C1781       C  0.54784379  0.67496847  0.56461517    -0.23270
C1782       C  0.55271207  0.67912907  0.60561901     0.19630
F1783       F  0.53185384  0.70419610  0.62614169    -0.13230
F1784       F  0.57760494  0.66067649  0.66649762    -0.15590
F1785       F  0.57193807  0.63634861  0.50985897    -0.15590
F1786       F  0.62761347  0.60992240  0.54779386    -0.13230
C1787       C  0.54701084  0.70090333  0.47614361     0.24780
C1788       C  0.51896899  0.68173333  0.49635420    -0.23320
C1789       C  0.49056774  0.66638090  0.47222357     0.19690
C1790       C  0.48053326  0.68501869  0.43839441     0.24730
C1791       C  0.50156530  0.71600721  0.42672745    -0.23270
C1792       C  0.53664212  0.72155070  0.44423996     0.19630
F1793       F  0.56058383  0.74785558  0.43102805    -0.13230
F1794       F  0.57960916  0.71000288  0.49376658    -0.15590
F1795       F  0.45167610  0.67194526  0.41659932    -0.15590
F1796       F  0.47873065  0.63028893  0.47602055    -0.13230
C1797       C  0.45896337  0.71860728  0.58236962     0.24780
C1798       C  0.47522304  0.68828624  0.55963650    -0.23320
C1799       C  0.44861468  0.66398736  0.54219226     0.19690
C1800       C  0.41445373  0.67904265  0.52923586     0.24730
C1801       C  0.40347530  0.71595516  0.54184440    -0.23270
C1802       C  0.42390991  0.73279893  0.57255304     0.19630
F1803       F  0.41215292  0.76582148  0.58983533    -0.13230
F1804       F  0.47984819  0.74142705  0.60588408    -0.15590
F1805       F  0.39302132  0.65820190  0.50429065    -0.15590
F1806       F  0.45518743  0.62605407  0.53945931    -0.13230
C1807       C  0.09764063  0.51306200  0.20900701     0.24780
C1808       C  0.05909663  0.50703697  0.20142998    -0.23320
C1809       C  0.04670013  0.52493919  0.16697498     0.19690
C1810       C  0.06957616  0.54952548  0.14474318     0.24730
C1811       C  0.10800037  0.55568562  0.15289967    -0.23270
C1812       C  0.12098712  0.53550090  0.18549516     0.19630
F1813       F  0.15744951  0.53675460  0.19491862    -0.13230
F1814       F  0.11438850  0.49602802  0.23901180    -0.15590
F1815       F  0.05331159  0.56576042  0.11395036    -0.15590
F1816       F  0.01211509  0.51855896  0.15327782    -0.13230
C1817       C  0.28736375  0.66053572  0.25713356     0.24780
C1818       C  0.26564902  0.69303615  0.24914790    -0.23320
C1819       C  0.27991535  0.72854660  0.26427818     0.19690
C1820       C  0.31301601  0.73216402  0.28359525     0.24730
C1821       C  0.33458737  0.70053916  0.29071435    -0.23270
C1822       C  0.32117426  0.66431614  0.27790495     0.19630
F1823       F  0.34040344  0.63230526  0.28584767    -0.13230
F1824       F  0.27448990  0.62499244  0.24932222    -0.15590
F1825       F  0.32270186  0.76746072  0.29714514    -0.15590
F1826       F  0.25921466  0.76035308  0.26598570    -0.13230
C1827       C  0.24225652  0.70234158  0.33766619     0.24780
C1828       C  0.23524356  0.74140600  0.34632120    -0.23320
C1829       C  0.20630515  0.75777245  0.32465035     0.19690
C1830       C  0.19151616  0.73874881  0.29130840     0.24730
C1831       C  0.20555654  0.70267385  0.27846226    -0.23270
C1832       C  0.22111113  0.68215271  0.30931097     0.19630
F1833       F  0.22654295  0.64410897  0.30474726    -0.13230
F1834       F  0.27112506  0.68370174  0.35339027    -0.15590
F1835       F  0.15919489  0.75211872  0.27730743    -0.15590
F1836       F  0.19226991  0.79225811  0.33554428    -0.13230
C1837       C  0.25448012  0.73259155  0.18285034     0.24780
C1838       C  0.22223988  0.72540769  0.20525177    -0.23320
C1839       C  0.19833173  0.75644776  0.20897941     0.19690
C1840       C  0.21326959  0.79313764  0.21202504     0.24730
C1841       C  0.25098714  0.79895139  0.20315128    -0.23270
C1842       C  0.26961694  0.76935133  0.18342691     0.19630
F1843       F  0.30380985  0.77499454  0.16871619    -0.13230
F1844       F  0.27572271  0.70364680  0.16880179    -0.15590
F1845       F  0.19122977  0.82199896  0.22457556    -0.15590
F1846       F  0.16124165  0.75107650  0.20875533    -0.13230
C1847       C  0.22037338  0.63422274  0.18641399     0.24780
C1848       C  0.20318113  0.65781617  0.21510657    -0.23320
C1849       C  0.16410390  0.65260482  0.21739178     0.19690
C1850       C  0.14398039  0.62724648  0.19191182     0.24730
C1851       C  0.16070552  0.60652458  0.16041075    -0.23270
C1852       C  0.20042480  0.60747762  0.16258777     0.19630
F1853       F  0.22158205  0.58076139  0.14449639    -0.13230
F1854       F  0.25727870  0.63624734  0.18069840    -0.15590
F1855       F  0.10691983  0.62460680  0.19725544    -0.15590
F1856       F  0.14413451  0.67353080  0.24342544    -0.13230
C1857       C  0.33930648  0.48137743  0.99326433     0.24780
C1858       C  0.34627574  0.44856930  0.01451192    -0.23320
C1859       C  0.33008738  0.44782240  0.05189637     0.19690
C1860       C  0.30396162  0.47595332  0.06377811     0.24730
C1861       C  0.28694156  0.49815089  0.03509977    -0.23270
C1862       C  0.31233296  0.50768490  0.00592230     0.19630
F1863       F  0.31669053  0.54434307  0.99605431    -0.13230
F1864       F  0.35880447  0.48877552  0.96112148    -0.15590
F1865       F  0.28864976  0.47431909  0.09940889    -0.15590
F1866       F  0.33780072  0.41899850  0.07597676    -0.13230
C1867       C  0.25056701  0.52442653  0.95954288     0.24780
C1868       C  0.23074001  0.50011851  0.98370140    -0.23320
C1869       C  0.20606578  0.47542879  0.96354865     0.19690
C1870       C  0.21551376  0.46221075  0.92620119     0.24730
C1871       C  0.24700780  0.47683455  0.90767007    -0.23270
C1872       C  0.26211006  0.51081774  0.92293144     0.19630
F1873       F  0.28767844  0.53025246  0.90302723    -0.13230
F1874       F  0.25744734  0.56098445  0.97051159    -0.15590
F1875       F  0.19763418  0.43139954  0.91106055    -0.15590
F1876       F  0.17961638  0.45666053  0.98301647    -0.13230
C1877       C  0.21816118  0.54969463  0.05818861     0.24780
C1878       C  0.21696989  0.50920908  0.05420240    -0.23320
C1879       C  0.18557243  0.49288257  0.07197076     0.19690
C1880       C  0.16063561  0.51470754  0.09621249     0.24730
C1881       C  0.16298643  0.55534590  0.10126868    -0.23270
C1882       C  0.19062242  0.57179771  0.07798462     0.19630
F1883       F  0.19313944  0.61026416  0.07693556    -0.13230
F1884       F  0.24637780  0.56888837  0.04230330    -0.15590
F1885       F  0.13236910  0.49537379  0.11190510    -0.15590
F1886       F  0.17656725  0.45617190  0.06377182    -0.13230
C1887       C  0.24753341  0.41633620  0.05201184     0.24780
C1888       C  0.24873690  0.44178938  0.02076237    -0.23320
C1889       C  0.26778142  0.42637431  0.98737904     0.19690
C1890       C  0.28007216  0.38940084  0.98284731     0.24730
C1891       C  0.28073720  0.36577288  0.01386576    -0.23270
C1892       C  0.26479057  0.37989912  0.04911279     0.19630
F1893       F  0.26667571  0.35913919  0.08145544    -0.13230
F1894       F  0.23496171  0.42805097  0.08724734    -0.15590
F1895       F  0.29657066  0.37891577  0.94887621    -0.15590
F1896       F  0.28274027  0.44848841  0.96122808    -0.13230
C1897       C  0.06007705  0.79330760  0.01856607     0.24780
C1898       C  0.02882626  0.80447022  0.99693319    -0.23320
C1899       C  0.00193251  0.77857529  0.98782705     0.19690
C1900       C  0.00540421  0.74210053  0.99860491     0.24730
C1901       C  0.03685900  0.72741567  0.01884802    -0.23270
C1902       C  0.06502141  0.75448244  0.02809251     0.19630
F1903       F  0.09814877  0.74363177  0.04264390    -0.13230
F1904       F  0.08532794  0.81954381  0.03039447    -0.15590
F1905       F  0.97853649  0.72023480  0.98356503    -0.15590
F1906       F  0.97147988  0.78850556  0.96684935    -0.13230
C1907       C  0.01730081  0.66805389  0.94557895     0.24780
C1908       C  0.04656826  0.67617557  0.97235469    -0.23320
C1909       C  0.07389350  0.69981629  0.95584570     0.19690
C1910       C  0.06346633  0.72721072  0.92815247     0.24730
C1911       C  0.02743686  0.72743164  0.91126474    -0.23270
C1912       C  0.00581741  0.69506689  0.91827580     0.19630
F1913       F  0.97247048  0.69015598  0.90079240    -0.13230
F1914       F  0.00231706  0.63298328  0.94228363    -0.15590
F1915       F  0.08824185  0.75444880  0.91922863    -0.15590
F1916       F  0.10739021  0.70332185  0.97343852    -0.13230
C1917       C  0.08213507  0.67255667  0.08184663     0.24780
C1918       C  0.07001240  0.65993753  0.04441028    -0.23320
C1919       C  0.07974254  0.62131306  0.03553874     0.19690
C1920       C  0.10006195  0.59764228  0.06157517     0.24730
C1921       C  0.11328209  0.61049301  0.09898318    -0.23270
C1922       C  0.10440680  0.64991087  0.10684586     0.19630
F1923       F  0.11651322  0.66851789  0.13905640    -0.13230
F1924       F  0.07166665  0.70715873  0.09608068    -0.15590
F1925       F  0.10546281  0.56090374  0.04992349    -0.15590
F1926       F  0.06806611  0.60510138  0.00153822    -0.13230
C1927       C  0.02548371  0.12695626  0.54927309     0.24780
C1928       C  0.03605437  0.15713810  0.52539507    -0.23320
C1929       C  0.07499633  0.16360142  0.52431305     0.19690
C1930       C  0.10060234  0.14445210  0.54886472     0.24730
C1931       C  0.08910692  0.11796037  0.57661714    -0.23270
C1932       C  0.05082608  0.10766749  0.57297894     0.19630
F1933       F  0.03726006  0.07578966  0.58878734    -0.13230
F1934       F  0.99058862  0.11293832  0.54802164    -0.15590
F1935       F  0.13715843  0.15214677  0.54539877    -0.15590
F1936       F  0.08888015  0.18921937  0.49989115    -0.13230
C1937       C  0.32324635  0.02585777  0.48929729     0.24780
C1938       C  0.33888653  0.99219749  0.47230094    -0.23320
C1939       C  0.31776594  0.95959016  0.47167578     0.19690
C1940       C  0.28187458  0.96051117  0.48463037     0.24730
C1941       C  0.26437239  0.99353207  0.50195346    -0.23270
C1942       C  0.28681648  0.02655089  0.50414232     0.19630
F1943       F  0.27263653  0.06080465  0.51533044    -0.13230
F1944       F  0.34238828  0.05886604  0.49029162    -0.15590
F1945       F  0.26275956  0.92971332  0.47295136    -0.15590
F1946       F  0.33031658  0.92667443  0.45471471    -0.13230
C1947       C  0.20581479  0.96191156  0.43398887     0.24780
C1948       C  0.21215686  0.99487238  0.45785610    -0.23320
C1949       C  0.23197190  0.02313953  0.43834750     0.19690
C1950       C  0.25995468  0.01168836  0.41193304     0.24730
C1951       C  0.26058132  0.97432272  0.39513055    -0.23270
C1952       C  0.23111767  0.95058173  0.40495962     0.19630
F1953       F  0.22649279  0.91634116  0.38680026    -0.13230
F1954       F  0.17242341  0.94485252  0.43300496    -0.15590
F1955       F  0.28616433  0.03745160  0.40282855    -0.15590
F1956       F  0.23187686  0.05948727  0.45258347    -0.13230
C1957       C  0.19029222  0.92591329  0.50660670     0.24780
C1958       C  0.21116160  0.95515408  0.52435591    -0.23320
C1959       C  0.23569282  0.94283840  0.55377482     0.19690
C1960       C  0.25058361  0.90609275  0.55118789     0.24730
C1961       C  0.23922035  0.88082719  0.52111660    -0.23270
C1962       C  0.20641487  0.88971421  0.50095804     0.19630
F1963       F  0.19113123  0.86463626  0.47507250    -0.13230
F1964       F  0.15447121  0.93209168  0.49680814    -0.15590
F1965       F  0.27873295  0.89668057  0.57532551    -0.15590
F1966       F  0.25150965  0.96798935  0.57916562    -0.13230
C1967       C  0.15804540  0.02953052  0.51954032     0.24780
C1968       C  0.19657036  0.02484851  0.52707969    -0.23320
C1969       C  0.20888198  0.04391594  0.56147727     0.19690
C1970       C  0.18571752  0.06854755  0.58425181     0.24730
C1971       C  0.14636440  0.07185927  0.57831863    -0.23270
C1972       C  0.13388194  0.05112122  0.54449542     0.19630
F1973       F  0.09754152  0.05130084  0.53474210    -0.13230
F1974       F  0.14268379  0.01184205  0.48798430    -0.15590
F1975       F  0.20391429  0.08885777  0.61195763    -0.15590
F1976       F  0.24374288  0.03853316  0.57476185    -0.13230
C1977       C  0.69640140  0.47305270  0.93046947     0.24780
C1978       C  0.71667733  0.47709749  0.96530750    -0.23320
C1979       C  0.69932958  0.50002299  0.99541013     0.19690
C1980       C  0.66661279  0.51925990  0.99056301     0.24730
C1981       C  0.64678941  0.51493128  0.95654063    -0.23270
C1982       C  0.66326288  0.49384226  0.92529605     0.19630
F1983       F  0.64623260  0.49139732  0.89020428    -0.13230
F1984       F  0.70577419  0.44665586  0.90300055    -0.15590
F1985       F  0.65331840  0.54047767  0.02098328    -0.15590
F1986       F  0.71317349  0.50354705  0.03168385    -0.13230
C1987       C  0.71418026  0.42226231  0.01990141     0.24780
C1988       C  0.74907546  0.43978297  0.01309128    -0.23320
C1989       C  0.77051719  0.44616116  0.04622062     0.19690
C1990       C  0.75334975  0.45227624  0.08216091     0.24730
C1991       C  0.71429972  0.44878304  0.08620554    -0.23270
C1992       C  0.69625572  0.42852943  0.05582076     0.19630
F1993       F  0.66092089  0.41675475  0.06004019    -0.13230
F1994       F  0.69485070  0.40594811  0.99000839    -0.15590
F1995       F  0.77598021  0.45922069  0.11246068    -0.15590
F1996       F  0.80796541  0.44587896  0.04372094    -0.13230
C1997       C  0.97119371  0.42454142  0.68384041     0.24780
C1998       C  0.94896558  0.43762892  0.71498196    -0.23320
C1999       C  0.92540974  0.46812817  0.70435052     0.19690
C2000       C  0.93820285  0.49492601  0.67755081     0.24730
C2001       C  0.97075982  0.48759932  0.65577547    -0.23270
C2002       C  0.98443210  0.45015833  0.65667617     0.19630
F2003       F  0.01059034  0.43824493  0.63151234    -0.13230
F2004       F  0.97429667  0.38692848  0.67528364    -0.15590
F2005       F  0.91908071  0.52780552  0.67323891    -0.15590
F2006       F  0.89524596  0.47675766  0.72601819    -0.13230
C2007       C  0.00827539  0.49328655  0.73730674     0.24780
C2008       C  0.97714318  0.48261861  0.76056213    -0.23320
C2009       C  0.95612575  0.51342996  0.77572157     0.19690
C2010       C  0.96834476  0.55098928  0.77188167     0.24730
C2011       C  0.99919829  0.55968742  0.74876189    -0.23270
C2012       C  0.01882141  0.53040366  0.73179463     0.19630
F2013       F  0.04845778  0.53757547  0.70912071    -0.13230
F2014       F  0.02702152  0.46832374  0.71503208    -0.15590
F2015       F  0.94845266  0.57883077  0.78951426    -0.15590
F2016       F  0.92142647  0.50866897  0.78916227    -0.13230
C2017       C  0.02243256  0.43283556  0.79869549     0.24780
C2018       C  0.00101802  0.41720751  0.76791419    -0.23320
C2019       C  0.02143514  0.39451362  0.74103597     0.19690
C2020       C  0.05864655  0.40367342  0.73352208     0.24730
C2021       C  0.07553268  0.43309408  0.75564534    -0.23270
C2022       C  0.05850829  0.44392670  0.79110494     0.19630
F2023       F  0.07575205  0.46756955  0.81723564    -0.13230
F2024       F  0.00625233  0.44693357  0.83131889    -0.15590
F2025       F  0.07769926  0.38428489  0.70554178    -0.15590
F2026       F  0.00772506  0.36091133  0.72744499    -0.13230
C2027       C  0.89402967  0.29238938  0.88771087     0.24780
C2028       C  0.88583500  0.33167429  0.89504259    -0.23320
C2029       C  0.90593358  0.34785438  0.92716025     0.19690
C2030       C  0.92801520  0.32577136  0.95275076     0.24730
C2031       C  0.93359241  0.28584106  0.94749568    -0.23270
C2032       C  0.91724709  0.27060322  0.91257085     0.19630
F2033       F  0.92444921  0.23435789  0.90069466    -0.13230
F2034       F  0.88138866  0.27457094  0.85494456    -0.15590
F2035       F  0.94511392  0.34461207  0.98251040    -0.15590
F2036       F  0.90350468  0.38573443  0.93507317    -0.13230
C2037       C  0.81067470  0.41476146  0.88092194     0.24780
C2038       C  0.83134753  0.38382395  0.89574838    -0.23320
C2039       C  0.82186878  0.37528380  0.93450388     0.19690
C2040       C  0.79753874  0.39806090  0.95767834     0.24730
C2041       C  0.77895709  0.43147937  0.94432025    -0.23270
C2042       C  0.78573662  0.43766437  0.90403245     0.19630
F2043       F  0.76726433  0.46498311  0.88507155    -0.13230
F2044       F  0.81430028  0.42331951  0.84312002    -0.15590
F2045       F  0.79272672  0.38549937  0.99396591    -0.15590
F2046       F  0.83495696  0.34347603  0.95112120    -0.13230
C2047       C  0.89801856  0.41815332  0.84921430     0.24780
C2048       C  0.88515473  0.38050383  0.84103548    -0.23320
C2049       C  0.90146600  0.36294001  0.80754414     0.19690
C2050       C  0.92305047  0.38333135  0.78080915     0.24730
C2051       C  0.93457197  0.42158355  0.78765777    -0.23270
C2052       C  0.92348532  0.43705565  0.82465758     0.19630
F2053       F  0.93978158  0.46860116  0.84012433    -0.13230
F2054       F  0.88832273  0.43643742  0.88272540    -0.15590
F2055       F  0.93456578  0.36417541  0.74841168    -0.15590
F2056       F  0.89579348  0.32544034  0.79950139    -0.13230
C2057       C  0.81783336  0.33900664  0.80439919     0.24780
C2058       C  0.82915404  0.33172308  0.84344575    -0.23320
C2059       C  0.80914792  0.30226032  0.86074564     0.19690
C2060       C  0.78253961  0.27997636  0.84044009     0.24730
C2061       C  0.77342680  0.28482175  0.80041548    -0.23270
C2062       C  0.79176295  0.31569511  0.78343179     0.19630
F2063       F  0.78351860  0.32492144  0.74660159    -0.13230
F2064       F  0.82980544  0.37033027  0.78636381    -0.15590
F2065       F  0.76452331  0.25428666  0.86190597    -0.15590
F2066       F  0.81468455  0.29469571  0.89856537    -0.13230
C2067       C  0.76174025  0.55697991  0.01802544     0.24780
C2068       C  0.74140410  0.57104225  0.98656522    -0.23320
C2069       C  0.75022747  0.55466059  0.94964578     0.19690
C2070       C  0.77524372  0.52405820  0.94666238     0.24730
C2071       C  0.77964209  0.49993334  0.97832078    -0.23270
C2072       C  0.78152138  0.52219758  0.01369267     0.19630
F2073       F  0.80641555  0.51416473  0.04167616    -0.13230
F2074       F  0.76174366  0.57567146  0.05291269    -0.15590
F2075       F  0.79561980  0.51924867  0.91419186    -0.15590
F2076       F  0.73701745  0.56934151  0.91646565    -0.13230
C2077       C  0.56962334  0.73180578  0.93951669     0.24780
C2078       C  0.58815562  0.75026885  0.97031226    -0.23320
C2079       C  0.57441441  0.78608071  0.98292470     0.19690
C2080       C  0.53877485  0.79774510  0.97105142     0.24730
C2081       C  0.51516240  0.77142129  0.95239485    -0.23270
C2082       C  0.53413306  0.74328636  0.92907270     0.19630
F2083       F  0.51629999  0.72003397  0.90334079    -0.13230
F2084       F  0.58481105  0.70077344  0.92133409    -0.15590
F2085       F  0.52734494  0.83420982  0.97712272    -0.15590
F2086       F  0.59555102  0.80978897  0.00536016    -0.13230
C2087       C  0.94016555  0.65803535  0.00691433     0.24780
C2088       C  0.92703356  0.69287254  0.02327642    -0.23320
C2089       C  0.94687361  0.70794445  0.05525914     0.19690
C2090       C  0.98303521  0.69515698  0.06275742     0.24730
C2091       C  0.00099439  0.67025466  0.03531217    -0.23270
C2092       C  0.97662956  0.64579127  0.01494056     0.19630
F2093       F  0.98766182  0.61004392  0.00465851    -0.13230
F2094       F  0.91799846  0.63629259  0.98350277    -0.15590
F2095       F  0.00258547  0.71378605  0.09090469    -0.15590
F2096       F  0.93220507  0.73649798  0.07763767    -0.13230
C2097       C  0.72093059  0.79834759  0.16630111     0.24780
C2098       C  0.72379550  0.76143986  0.14910706    -0.23320
C2099       C  0.75295911  0.73811746  0.16294570     0.19690
C2100       C  0.77422314  0.75044361  0.19497381     0.24730
C2101       C  0.75815880  0.77777536  0.22080213    -0.23270
C2102       C  0.73970368  0.80696637  0.20133264     0.19630
F2103       F  0.74035794  0.84320149  0.21580351    -0.13230
F2104       F  0.69882190  0.82513341  0.15060772    -0.15590
F2105       F  0.80226137  0.72782920  0.20709418    -0.15590
F2106       F  0.75642831  0.70102171  0.15182259    -0.13230
C2107       C  0.49513389  0.29777334  0.05145813     0.24780
C2108       C  0.51514220  0.30505534  0.01759555    -0.23320
C2109       C  0.54821383  0.28454910  0.01163546     0.19690
C2110       C  0.55503645  0.25166763  0.03254551     0.24730
C2111       C  0.52637975  0.23668232  0.05542428    -0.23270
C2112       C  0.50340427  0.26497199  0.07225934     0.19630
F2113       F  0.49490714  0.26420412  0.11031434    -0.13230
F2114       F  0.46648700  0.32028949  0.06280316    -0.15590
F2115       F  0.58563675  0.23106408  0.02395361    -0.15590
F2116       F  0.57201985  0.29402485  0.98327174    -0.13230
C2117       C  0.45728392  0.15134168  0.03351790     0.24780
C2118       C  0.47162606  0.18310801  0.05463002    -0.23320
C2119       C  0.44420512  0.20877565  0.06832851     0.19690
C2120       C  0.41182544  0.21410298  0.04649793     0.24730
C2121       C  0.40443737  0.18998797  0.01426749    -0.23270
C2122       C  0.42542917  0.15611214  0.01073715     0.19630
F2123       F  0.41598469  0.12838257  0.98437538    -0.13230
F2124       F  0.47809385  0.11954133  0.02801492    -0.15590
F2125       F  0.38769638  0.24199870  0.05732533    -0.15590
F2126       F  0.44469887  0.22201972  0.10542986    -0.13230
C2127       C  0.53719666  0.16005762  0.10156778     0.24780
C2128       C  0.54027814  0.16701355  0.06163986    -0.23320
C2129       C  0.57181661  0.15075881  0.04299466     0.19690
C2130       C  0.59477857  0.12409061  0.06117246     0.24730
C2131       C  0.59166763  0.11690848  0.10125246    -0.23270
C2132       C  0.56230251  0.13664960  0.12089273     0.19630
F2133       F  0.55899171  0.13476268  0.15996637    -0.13230
F2134       F  0.51077891  0.17798547  0.12312982    -0.15590
F2135       F  0.62113109  0.10745852  0.03878475    -0.15590
F2136       F  0.58348836  0.16245864  0.00815543    -0.13230
C2137       C  0.47489462  0.51480035  0.74295368     0.24780
C2138       C  0.48970135  0.49251705  0.71161271    -0.23320
C2139       C  0.46269601  0.47453737  0.68731013     0.19690
C2140       C  0.42758863  0.46586877  0.70198425     0.24730
C2141       C  0.41684119  0.47943662  0.73889958    -0.23270
C2142       C  0.43940485  0.50717123  0.75721008     0.19630
F2143       F  0.42751628  0.52601377  0.78967273    -0.13230
F2144       F  0.49726158  0.53851476  0.76406390    -0.15590
F2145       F  0.40421896  0.44413498  0.67998500    -0.15590
F2146       F  0.46821553  0.46804880  0.64914175    -0.13230
C2147       C  0.55284097  0.46988815  0.78947961     0.24780
C2148       C  0.52951364  0.46254190  0.75745754    -0.23320
C2149       C  0.50167713  0.43377049  0.76371294     0.19690
C2150       C  0.49617499  0.41650483  0.79893413     0.24730
C2151       C  0.52085359  0.42225220  0.82901622    -0.23270
C2152       C  0.55131089  0.44678986  0.82235537     0.19630
F2153       F  0.57838864  0.45130880  0.84918876    -0.13230
F2154       F  0.57572956  0.50009787  0.79082424    -0.15590
F2155       F  0.46729191  0.39237225  0.80268150    -0.15590
F2156       F  0.47851823  0.42132277  0.73555027    -0.13230
C2157       C  0.56420799  0.56691841  0.65161551     0.24780
C2158       C  0.60227953  0.57319994  0.65992736    -0.23320
C2159       C  0.61702562  0.54911643  0.68850675     0.19690
C2160       C  0.59516088  0.52263541  0.70897313     0.24730
C2161       C  0.55650822  0.51662981  0.70148306    -0.23270
C2162       C  0.54265786  0.53991220  0.67105624     0.19630
F2163       F  0.50805611  0.53524190  0.65650654    -0.13230
F2164       F  0.54726427  0.58387407  0.62153882    -0.15590
F2165       F  0.61374206  0.50280648  0.73552516    -0.15590
F2166       F  0.65371013  0.55068965  0.69683106    -0.13230
C2167       C  0.41491099  0.24876857  0.57364284     0.24780
C2168       C  0.45036856  0.25531636  0.58981594    -0.23320
C2169       C  0.47192138  0.28364084  0.57300816     0.19690
C2170       C  0.46546501  0.29171097  0.53431721     0.24730
C2171       C  0.43924077  0.26891866  0.51342838    -0.23270
C2172       C  0.40843739  0.25967584  0.53545085     0.19630
F2173       F  0.37438187  0.25708252  0.51894430    -0.13230
F2174       F  0.38842442  0.22978444  0.59283703    -0.15590
F2175       F  0.49122128  0.31257317  0.51623138    -0.15590
F2176       F  0.50243376  0.29825008  0.59092087    -0.13230
C2177       C  0.64558218  0.29913180  0.81355481     0.24780
C2178       C  0.63117522  0.30270226  0.77530628    -0.23320
C2179       C  0.65515297  0.31585280  0.74715205     0.19690
C2180       C  0.69327214  0.31458948  0.75432821     0.24730
C2181       C  0.70650729  0.29415299  0.78691129    -0.23270
C2182       C  0.68368373  0.29522064  0.81925601     0.19630
F2183       F  0.69700426  0.28632784  0.85465737    -0.13230
F2184       F  0.62328038  0.29376057  0.84438863    -0.15590
F2185       F  0.71610141  0.32345549  0.72495074    -0.15590
F2186       F  0.64244610  0.32484587  0.71150771    -0.13230
C2187       C  0.51623672  0.38815688  0.67324022     0.24780
C2188       C  0.53067758  0.37200903  0.70725725    -0.23320
C2189       C  0.56421850  0.38663172  0.72143511     0.19690
C2190       C  0.57545164  0.42238886  0.70946544     0.24730
C2191       C  0.54868664  0.44577018  0.69084062    -0.23270
C2192       C  0.52733339  0.42491395  0.66392946     0.19630
F2193       F  0.52308188  0.43726274  0.62733859    -0.13230
F2194       F  0.49080558  0.36967321  0.65070252    -0.15590
F2195       F  0.60630423  0.43683675  0.72614735    -0.15590
F2196       F  0.58287720  0.36993945  0.75055457    -0.13230
C2197       C  0.51723164  0.17770567  0.93038080     0.24780
C2198       C  0.49970466  0.21101682  0.91860159    -0.23320
C2199       C  0.48293653  0.23498118  0.94519839     0.19690
C2200       C  0.48503001  0.22727448  0.98359477     0.24730
C2201       C  0.50765534  0.19746735  0.99805783    -0.23270
C2202       C  0.51976585  0.16997992  0.96991592     0.20750
F2203       F  0.52931298  0.13412673  0.97935264    -0.13230
F2204       F  0.53035992  0.15206115  0.90384129    -0.15590
F2205       F  0.46261211  0.24875310  0.00598592    -0.15590
F2206       F  0.46227627  0.26511173  0.93370973    -0.13230
C2207       C  0.39243107  0.00507163  0.76080614     0.24780
C2208       C  0.41988125  0.98870562  0.78421508    -0.23320
C2209       C  0.43650657  0.01519473  0.81077255     0.19690
C2210       C  0.43954948  0.05294920  0.80054004     0.24730
C2211       C  0.42726434  0.06370577  0.76376347    -0.23270
C2212       C  0.39859731  0.04186852  0.74676083     0.19630
F2213       F  0.37905505  0.05448378  0.71604534    -0.13230
F2214       F  0.36180994  0.98494153  0.75054227    -0.15590
F2215       F  0.45945440  0.07699246  0.82371815    -0.15590
F2216       F  0.45785418  0.00431705  0.84071864    -0.13230
C2217       C  0.20808121  0.15828246  0.78196262     0.24780
C2218       C  0.19729071  0.19156504  0.76250774    -0.23320
C2219       C  0.19445096  0.22250948  0.78970988     0.19690
C2220       C  0.21999920  0.22649091  0.82071602     0.24730
C2221       C  0.24409183  0.19625405  0.82923050    -0.23270
C2222       C  0.23515941  0.16058627  0.81140642     0.19630
F2223       F  0.25206721  0.12814967  0.82212559    -0.13230
F2224       F  0.18970768  0.12514588  0.77624188    -0.15590
F2225       F  0.22195857  0.25994752  0.84093590    -0.15590
F2226       F  0.16275955  0.24302469  0.79201575    -0.13230
C2227       C  0.16290793  0.18872018  0.66115773     0.24780
C2228       C  0.18684840  0.17227412  0.68908025    -0.23320
C2229       C  0.18448871  0.13193242  0.69030647     0.19690
C2230       C  0.16063553  0.11004393  0.66608772     0.24730
C2231       C  0.14022368  0.12556447  0.63488681    -0.23270
C2232       C  0.14018322  0.16628238  0.63519866     0.19630
F2233       F  0.11659007  0.18563857  0.61247096    -0.13230
F2234       F  0.16022180  0.22706149  0.65906734    -0.15590
F2235       F  0.16068935  0.07189456  0.67116726    -0.15590
F2236       F  0.20828100  0.11185327  0.71213205    -0.13230
C2237       C  0.20664378  0.27081392  0.72858971     0.24780
C2238       C  0.21907522  0.23962075  0.70606495    -0.23320
C2239       C  0.25035814  0.24866928  0.68311295     0.19690
C2240       C  0.27427910  0.27912506  0.69417590     0.24730
C2241       C  0.26761102  0.30198758  0.72805600    -0.23270
C2242       C  0.23216229  0.29720782  0.74477471     0.19630
F2243       F  0.22263250  0.31492633  0.77837689    -0.13230
F2244       F  0.16994867  0.27603176  0.73419095    -0.15590
F2245       F  0.30424711  0.28566579  0.67198307    -0.15590
F2246       F  0.26047430  0.22497492  0.65330996    -0.13230
C2247       C  0.27098079  0.15378325  0.69826933     0.24780
C2248       C  0.25325882  0.18189280  0.72194367    -0.23320
C2249       C  0.27580807  0.20043176  0.75025842     0.19690
C2250       C  0.30811972  0.18542466  0.76270858     0.24730
C2251       C  0.32595812  0.15875794  0.73963748    -0.23270
C2252       C  0.30765150  0.14296569  0.70674502     0.19630
F2253       F  0.32613857  0.11957702  0.68156448    -0.13230
F2254       F  0.25561472  0.14077076  0.66455525    -0.15590
F2255       F  0.32543487  0.20354255  0.79289960    -0.15590
F2256       F  0.26757593  0.23458075  0.76621890    -0.13230
C2257       C  0.01893915  0.05837125  0.78523178     0.24780
C2258       C  0.04220035  0.03432390  0.76217132    -0.23320
C2259       C  0.07387691  0.02165659  0.78153018     0.19690
C2260       C  0.06987757  0.01124189  0.82033013     0.24730
C2261       C  0.03674573  0.02101064  0.83955364    -0.23270
C2262       C  0.01591236  0.05114044  0.82450241     0.19630
F2263       F  0.98781111  0.06771595  0.84477706    -0.13230
F2264       F  0.99265431  0.08078389  0.76935921    -0.15590
F2265       F  0.09552948  0.98851777  0.83686477    -0.15590
F2266       F  0.10526217  0.01344089  0.76158070    -0.13230
C2267       C  0.95762623  0.02203772  0.69961730     0.24780
C2268       C  0.98276300  0.01339903  0.72945229    -0.23320
C2269       C  0.96706027  0.99550258  0.76249585     0.19690
C2270       C  0.93012082  0.98475193  0.76458223     0.24730
C2271       C  0.90619245  0.99030201  0.73368891    -0.23270
C2272       C  0.92016742  0.01034076  0.70153039     0.19630
F2273       F  0.89789937  0.01796239  0.67103520    -0.13230
F2274       F  0.96957767  0.03850251  0.66700440    -0.15590
F2275       F  0.91867213  0.96619949  0.79628393    -0.15590
F2276       F  0.98858878  0.98311392  0.79149216    -0.13230
C2277       C  0.00878727  0.94717485  0.69904513     0.24780
C2278       C  0.03287716  0.96788221  0.72409914    -0.23320
C2279       C  0.04739376  0.94644462  0.75511122     0.19690
C2280       C  0.02833741  0.91476136  0.76868709     0.24730
C2281       C  0.99597242  0.90203527  0.75009087    -0.23270
C2282       C  0.98700428  0.91853915  0.71419159     0.19630
F2283       F  0.95808314  0.90521390  0.69249360    -0.13230
F2284       F  0.99934576  0.96101680  0.66404301    -0.15590
F2285       F  0.04466217  0.89334562  0.79597611    -0.15590
F2286       F  0.08355662  0.94859620  0.76492973    -0.13230
C2287       C  0.04429541  0.07192067  0.68466461     0.24780
C2288       C  0.04651215  0.03206046  0.68934974    -0.23320
C2289       C  0.07266683  0.01293430  0.66443954     0.19690
C2290       C  0.09482686  0.03245022  0.63743150     0.24730
C2291       C  0.09346817  0.07258521  0.63430465    -0.23270
C2292       C  0.06777388  0.09153192  0.65943720     0.19630
F2293       F  0.06415400  0.12993516  0.65856024    -0.13230
F2294       F  0.01954363  0.09295564  0.70523075    -0.15590
F2295       F  0.11855310  0.01132128  0.61546178    -0.15590
F2296       F  0.07854675  0.97496762  0.66635609    -0.13230
C2297       C  0.76238093  0.75833288  0.76493857     0.24780
C2298       C  0.73558602  0.73825259  0.74124212    -0.23320
C2299       C  0.71269420  0.76050856  0.71800519     0.19690
C2300       C  0.72039943  0.79935246  0.71447812     0.24730
C2301       C  0.75051986  0.81699052  0.73483040    -0.23270
C2302       C  0.76946857  0.79637150  0.76180326     0.19630
F2303       F  0.79759082  0.81193596  0.78314930    -0.13230
F2304       F  0.78665368  0.74031040  0.78757891    -0.15590
F2305       F  0.69818648  0.81931220  0.69085603    -0.15590
F2306       F  0.68477823  0.74492933  0.69661010    -0.13230
C2307       C  0.80981129  0.67361854  0.73953035     0.24780
C2308       C  0.78008751  0.69012480  0.71889994    -0.23320
C2309       C  0.79276584  0.72006295  0.69489150     0.19690
C2310       C  0.82294123  0.74241005  0.70700527     0.24730
C2311       C  0.84378907  0.73312881  0.74015957    -0.23270
C2312       C  0.83900554  0.69639128  0.75412341     0.19630
F2313       F  0.86352487  0.68185294  0.77951773    -0.13230
F2314       F  0.81326432  0.63534768  0.74097740    -0.15590
F2315       F  0.82912604  0.77538090  0.68858072    -0.15590
F2316       F  0.77056723  0.73586807  0.66794772    -0.13230
C2317       C  0.72344498  0.70538534  0.81092106     0.24780
C2318       C  0.73715466  0.68034138  0.78115142    -0.23320
C2319       C  0.75983677  0.65143691  0.79546350     0.19690
C2320       C  0.78361282  0.65973783  0.82724507     0.24730
C2321       C  0.77971724  0.69452546  0.84865146    -0.23270
C2322       C  0.74666606  0.71489943  0.84258800     0.19630
F2323       F  0.73958972  0.74694208  0.86362198    -0.13230
F2324       F  0.69330878  0.72754101  0.80447897    -0.15590
F2325       F  0.80994020  0.63408812  0.83694813    -0.15590
F2326       F  0.76019788  0.61658651  0.77760046    -0.13230
C2327       C  0.64924253  0.63463768  0.70399948     0.24780
C2328       C  0.65277158  0.62925650  0.66314955    -0.23320
C2329       C  0.68123755  0.65106591  0.64672036     0.19690
C2330       C  0.70958332  0.66859443  0.66956250     0.24730
C2331       C  0.70799071  0.67232952  0.71088352    -0.23270
C2332       C  0.67542777  0.65598159  0.72683373     0.19630
F2333       F  0.66791404  0.66038913  0.76507631    -0.13230
F2334       F  0.61926801  0.62119002  0.72250303    -0.15590
F2335       F  0.73967659  0.67907107  0.64985449    -0.15590
F2336       F  0.68468400  0.65125154  0.60759218    -0.13230
C2337       C  0.78443886  0.03632994  0.03632198     0.24780
C2338       C  0.76393618  0.01210679  0.01086278    -0.23320
C2339       C  0.78392777  0.99496558  0.97960432     0.19690
C2340       C  0.81659954  0.00933559  0.96715508     0.24730
C2341       C  0.83604167  0.03416585  0.99128876    -0.23270
C2342       C  0.82006596  0.04772259  0.02615777     0.19630
F2343       F  0.84054677  0.06845547  0.05214938    -0.13230
F2344       F  0.77296906  0.04454998  0.07294479    -0.15590
F2345       F  0.83255496  0.99255153  0.93541160    -0.15590
F2346       F  0.77304424  0.96236962  0.96162703    -0.13230
C2347       C  0.71730527  0.03833067  0.95343728     0.24780
C2348       C  0.70545409  0.00601028  0.97381281    -0.23320
C2349       C  0.69499818  0.97607453  0.94798498     0.19690
C2350       C  0.71525037  0.96902595  0.91366816     0.24730
C2351       C  0.74047991  0.99656760  0.90107718    -0.23270
C2352       C  0.73743465  0.03314072  0.91894262     0.19630
F2353       F  0.75640915  0.06314231  0.90554412    -0.13230
F2354       F  0.71605277  0.07359995  0.96976213    -0.15590
F2355       F  0.71039739  0.93570821  0.89356489    -0.15590
F2356       F  0.66126918  0.95988521  0.95142040    -0.13230
C2357       C  0.74742526  0.89564210  0.99193782     0.24780
C2358       C  0.78007914  0.89008915  0.01385683    -0.23320
C2359       C  0.78433677  0.91516327  0.04655251     0.19690
C2360       C  0.76014936  0.94668216  0.05335582     0.24730
C2361       C  0.73065532  0.95524414  0.02729372    -0.23270
C2362       C  0.72118707  0.92382075  0.00281197     0.19630
F2363       F  0.68528066  0.91608842  0.99517094    -0.13230
F2364       F  0.73932984  0.87330777  0.96063347    -0.15590
F2365       F  0.76733032  0.97056078  0.08394856    -0.15590
F2366       F  0.81206984  0.90915014  0.07230867    -0.13230
C2367       C  0.70222728  0.06319551  0.05475569     0.24780
C2368       C  0.69858592  0.02305211  0.04677248    -0.23320
C2369       C  0.66647989  0.00705582  0.06296016     0.19690
C2370       C  0.64146504  0.02848336  0.08692005     0.24730
C2371       C  0.64743246  0.06766178  0.09797612    -0.23270
C2372       C  0.67871402  0.08399172  0.08049427     0.19630
F2373       F  0.68526259  0.12179674  0.08555798    -0.13230
F2374       F  0.72811142  0.08425987  0.03730772    -0.15590
F2375       F  0.61017094  0.01032473  0.09709109    -0.15590
F2376       F  0.65768476  0.97039124  0.05393009    -0.13230
loop_ 
_geom_bond_atom_site_label_1 
_geom_bond_atom_site_label_2 
_geom_bond_distance 
_geom_bond_site_symmetry_2 
_ccdc_geom_bond_type 
C1         C2338   1.564   1_565  S
C1         C2348   1.607   1_564  S
C1         C2361   1.619       .  S
C1         C2368   1.613   1_565  S
C2         C2298   1.575       .  S
C2         C2308   1.614       .  S
C2         C2318   1.600       .  S
C2         C2331   1.624       .  S
C3         C2258   1.568       .  S
C3         C2268   1.602   1_455  S
C3         C2278   1.589   1_545  S
C3         C2288   1.603       .  S
C4         C2218   1.622       .  S
C4         C2228   1.610       .  S
C4         C2238   1.608       .  S
C4         C2248   1.566       .  S
Zr5           O6   2.424       .  S
Zr5           O7   2.528       .  S
Zr5           O8   2.312       .  S
Zr5          O11   2.412       .  S
Zr5          O13   2.247       .  S
Zr5          O14   2.384       .  S
Zr5          O15   2.434       .  S
Zr5          O16   2.362       .  S
O6           H62   0.989       .  S
O6           H70   0.990       .  S
O7           C27   1.302       .  A
O8           C29   1.266       .  A
O9          Zr19   2.437       .  S
O9           C28   1.287       .  A
O10         Zr18   2.563       .  S
O10          C29   1.312       .  A
O11          C28   1.282       .  A
O12         Zr20   2.409       .  S
O12          C27   1.281       .  A
O13         Zr18   2.329       .  S
O13         Zr20   2.328       .  S
O14         Zr19   2.395       .  S
O14         Zr20   2.360       .  S
O14          H49   0.965       .  S
O15         Zr18   2.387       .  S
O15         Zr35   2.404       .  S
O15          H52   0.964       .  S
O16         Zr19   2.370       .  S
O16         Zr35   2.386       .  S
Zr17         O42   2.438       .  S
Zr17         O36   2.455       .  S
Zr17         O44   2.335       .  S
Zr17         O32   2.439       .  S
Zr17         O23   2.440       .  S
Zr17         O24   2.402       .  S
Zr17         O25   2.395       .  S
Zr17         O26   2.385       .  S
Zr18         O37   2.431       .  S
Zr18         O30   2.434       .  S
Zr18         O31   2.478       .  S
Zr18         O24   2.419       .  S
Zr18         O25   2.405       .  S
Zr19         O21   2.438       .  S
Zr19         O43   2.441       .  S
Zr19         O45   2.489       .  S
Zr19         O23   2.377       .  S
Zr19         O26   2.321       .  S
Zr20         O46   2.433       .  S
Zr20         O47   2.430       .  S
Zr20         O22   2.444       .  S
Zr20         O23   2.390       .  S
Zr20         O24   2.350       .  S
O21          H58   0.990       .  S
O22          H53   0.990       .  S
O22          H67   0.990       .  S
O24          H50   0.954       .  S
O25         Zr35   2.367       .  S
O26         Zr35   2.344       .  S
O26          H51   0.958       .  S
C27        C2188   1.481       .  S
C28        C2198   1.432       .  S
C29        C2178   1.488       .  S
O30          H66   0.989       .  S
O31          C33   1.299       .  A
O32          C33   1.289       .  A
C33        C2168   1.479       .  S
O34         Zr35   2.429       .  S
O34          H63   0.988       .  S
Zr35         O38   2.434       .  S
Zr35         O39   2.430       .  S
Zr35         O40   2.463       .  S
O36          C41   1.283       .  A
O37          H54   0.990       .  S
O37          H69   0.989       .  S
O38          H55   0.990       .  S
O39          H59   0.990       .  S
O39          H68   0.989       .  S
O40          C41   1.294       .  A
C41        C2211   1.491       .  S
O42          H61   0.989       .  S
O42          H65   0.990       .  S
O43          H57   0.988       .  S
O43          H64   0.990       .  S
O44          C48   1.271       .  A
O45          C48   1.294       .  A
O46          H56   0.990       .  S
O47          H60   0.991       .  S
C48        C2251   1.443       .  S
C71        C2138   1.595       .  S
C71        C2148   1.616       .  S
C71        C2161   1.629       .  S
C71        C2191   1.581       .  S
C72        C2111   1.582       .  S
C72        C2118   1.580       .  S
C72        C2128   1.574       .  S
C72        C2201   1.576   1_554  S
Zr73         O74   2.429       .  S
Zr73         O75   2.581       .  S
Zr73         O76   2.594       .  S
Zr73         O79   2.545       .  S
Zr73         O81   2.403   1_556  S
Zr73         O82   2.405       .  S
Zr73         O83   2.432       .  S
Zr73         O84   2.427       .  S
O74         H130   0.990       .  S
O74         H138   0.990       .  S
O75          C95   1.316   1_556  A
O76          C97   1.311   1_556  A
O77         Zr87   2.379       .  S
O77          C96   1.253       .  A
O78         Zr86   2.399       .  S
O78          C97   1.264       .  A
O79          C96   1.301       .  A
O80         Zr88   2.288       .  S
O80          C95   1.255       .  A
O81         Zr86   2.398       .  S
O81         Zr88   2.396       .  S
O82         Zr87   2.385       .  S
O82         Zr88   2.367   1_556  S
O82         H117   0.964       .  S
O83         Zr86   2.373   1_556  S
O83        Zr103   2.340       .  S
O83         H120   0.949       .  S
O84         Zr87   2.391       .  S
O84        Zr103   2.364       .  S
Zr85        O110   2.436       .  S
Zr85        O104   2.517       .  S
Zr85        O112   2.549       .  S
Zr85        O100   2.507       .  S
Zr85         O91   2.407       .  S
Zr85         O92   2.427       .  S
Zr85         O93   2.418       .  S
Zr85         O94   2.416   1_554  S
Zr86        O105   2.434       .  S
Zr86         O98   2.434       .  S
Zr86         O99   2.390       .  S
Zr86         O92   2.374       .  S
Zr86         O93   2.412       .  S
Zr87         O89   2.434       .  S
Zr87        O111   2.441       .  S
Zr87        O113   2.379       .  S
Zr87         O91   2.382   1_556  S
Zr87         O94   2.392       .  S
Zr88        O114   2.436       .  S
Zr88        O115   2.436       .  S
Zr88         O90   2.438       .  S
Zr88         O91   2.338       .  S
Zr88         O92   2.312       .  S
O89         H126   0.988       .  S
O90         H121   0.990       .  S
O90         H135   0.990       .  S
O92         H118   0.951       .  S
O93        Zr103   2.374   1_554  S
O94        Zr103   2.383       .  S
O94         H119   0.966       .  S
C95        C2088   1.472       .  S
C96        C2321   1.497       .  S
C97        C2358   1.532       .  S
O98         H134   0.990       .  S
O99         C101   1.262       .  A
O100        C101   1.290       .  A
C101       C2098   1.500       .  S
O102       Zr103   2.441       .  S
O102        H131   0.990       .  S
Zr103       O106   2.435       .  S
Zr103       O107   2.452       .  S
Zr103       O108   2.334       .  S
O104        C109   1.296   1_554  A
O105        H122   0.989       .  S
O105        H137   0.988       .  S
O106        H123   0.990       .  S
O107        H127   0.991       .  S
O107        H136   0.991       .  S
O108        C109   1.257       .  A
C109       C2078   1.468       .  S
O110        H129   0.990       .  S
O110        H133   0.990       .  S
O111        H125   0.990       .  S
O111        H132   0.988       .  S
O112        C116   1.300   1_554  A
O113        C116   1.257       .  A
O114        H124   0.990       .  S
O115        H128   0.990       .  S
C116       C2068   1.507       .  S
C139       C2028   1.631       .  S
C139       C2038   1.625       .  S
C139       C2048   1.618       .  S
C139       C2058   1.616       .  S
C140       C1998   1.593       .  S
C140       C2008   1.598       .  S
C140       C2018   1.576   1_655  S
C140       C2051   1.616       .  S
C141       C1978   1.594       .  S
C141       C1988   1.582   1_556  S
C141       C2041   1.644       .  S
C141       C2071   1.609       .  S
C142       C1941   1.601       .  S
C142       C1948   1.601       .  S
C142       C1958   1.575       .  S
C142       C1968   1.608   1_565  S
C143       C1931   1.621       .  S
C143       C1971   1.642       .  S
C143       C2231   1.622       .  S
C143       C2291   1.605       .  S
C144       C1901   1.594       .  S
C144       C1908   1.619   1_554  S
C144       C1918   1.622       .  S
C144       C2091   1.589       .  S
C145       C1861   1.595       .  S
C145       C1868   1.581   1_554  S
C145       C1878   1.616       .  S
C145       C1888   1.619       .  S
C146       C1818   1.597       .  S
C146       C1831   1.613       .  S
C146       C1838   1.577       .  S
C146       C1848   1.608       .  S
C147       C1811   1.635       .  S
C147       C1851   1.646       .  S
C147       C1881   1.632       .  S
C147       C1921   1.656       .  S
C148       C1768   1.615       .  S
C148       C1781   1.650       .  S
C148       C1788   1.578       .  S
C148       C1798   1.597       .  S
Zr149       O150   2.435       .  S
Zr149       O151   2.536       .  S
Zr149       O152   2.551       .  S
Zr149       O155   2.552       .  S
Zr149       O157   2.416       .  S
Zr149       O158   2.427       .  S
Zr149       O159   2.421       .  S
Zr149       O160   2.436       .  S
O150        H206   0.990       .  S
O150        H214   0.990       .  S
O151        C171   1.298       .  A
O152        C173   1.297       .  A
O153       Zr163   2.357       .  S
O153        C172   1.249       .  A
O154       Zr162   2.388       .  S
O154        C173   1.261       .  A
O155        C172   1.299       .  A
O156       Zr164   2.334       .  S
O156        C171   1.250       .  A
O157       Zr162   2.385       .  S
O157       Zr164   2.391       .  S
O158       Zr163   2.390       .  S
O158       Zr164   2.404       .  S
O158        H193   0.963       .  S
O159       Zr162   2.370       .  S
O159       Zr179   2.338       .  S
O159        H196   0.946       .  S
O160       Zr163   2.381       .  S
O160       Zr179   2.380       .  S
Zr161       O186   2.435       .  S
Zr161       O180   2.466       .  S
Zr161       O188   2.560       .  S
Zr161       O176   2.587       .  S
Zr161       O167   2.397       .  S
Zr161       O168   2.415       .  S
Zr161       O169   2.415       .  S
Zr161       O170   2.452       .  S
Zr162       O181   2.434       .  S
Zr162       O174   2.434       .  S
Zr162       O175   2.312       .  S
Zr162       O168   2.403       .  S
Zr162       O169   2.362       .  S
Zr163       O165   2.428       .  S
Zr163       O187   2.448       .  S
Zr163       O189   2.367       .  S
Zr163       O167   2.406       .  S
Zr163       O170   2.372       .  S
Zr164       O190   2.440       .  S
Zr164       O191   2.440       .  S
Zr164       O166   2.442       .  S
Zr164       O167   2.329       .  S
Zr164       O168   2.342       .  S
O165        H202   0.990       .  S
O166        H197   0.988       .  S
O166        H211   0.989       .  S
O168        H194   0.962       .  S
O169       Zr179   2.401       .  S
O170       Zr179   2.378       .  S
O170        H195   0.963       .  S
C171       C1961   1.471       .  S
C172       C1801   1.492       .  S
C173       C1828   1.520       .  S
O174        H210   0.991       .  S
O175        C177   1.260       .  A
O176        C177   1.320       .  A
C177       C1761   1.498       .  S
O178       Zr179   2.440       .  S
O178        H207   0.990       .  S
Zr179       O182   2.437       .  S
Zr179       O183   2.443       .  S
Zr179       O184   2.376       .  S
O180        C185   1.280       .  A
O181        H198   0.989       .  S
O181        H213   0.988       .  S
O182        H199   0.991       .  S
O183        H203   0.989       .  S
O183        H212   0.986       .  S
O184        C185   1.260       .  A
C185       C1738   1.477       .  S
O186        H205   0.990       .  S
O186        H209   0.990       .  S
O187        H201   0.990       .  S
O187        H208   0.991       .  S
O188        C192   1.305       .  A
O189        C192   1.251       .  A
O190        H200   0.990       .  S
O191        H204   0.990       .  S
C192       C1748   1.495       .  S
Zr215       O216   2.435       .  S
Zr215       O217   2.530       .  S
Zr215       O218   2.580       .  S
Zr215       O221   2.572       .  S
Zr215       O223   2.406       .  S
Zr215       O224   2.437       .  S
Zr215       O225   2.431       .  S
Zr215       O226   2.358       .  S
O216        H272   0.989       .  S
O216        H280   0.990       .  S
O217        C237   1.302       .  A
O218        C239   1.307       .  A
O219       Zr229   2.359       .  S
O219        C238   1.255       .  A
O220       Zr228   2.402       .  S
O220        C239   1.261       .  A
O221        C238   1.300       .  A
O222       Zr230   2.369       .  S
O222        C237   1.265       .  A
O223       Zr228   2.396       .  S
O223       Zr230   2.399       .  S
O224       Zr229   2.406       .  S
O224       Zr230   2.392       .  S
O224        H259   0.965       .  S
O225       Zr228   2.368       .  S
O225       Zr245   2.330       .  S
O225        H262   0.944       .  S
O226       Zr229   2.336       .  S
O226       Zr245   2.294       .  S
Zr227       O252   2.435       .  S
Zr227       O246   2.560       .  S
Zr227       O254   2.541       .  S
Zr227       O242   2.531       .  S
Zr227       O233   2.421       .  S
Zr227       O234   2.451       .  S
Zr227       O235   2.407       .  S
Zr227       O236   2.382       .  S
Zr228       O247   2.435       .  S
Zr228       O240   2.434       .  S
Zr228       O241   2.358       .  S
Zr228       O234   2.407       .  S
Zr228       O235   2.418       .  S
Zr229       O231   2.444       .  S
Zr229       O253   2.450       .  S
Zr229       O255   2.366       .  S
Zr229       O233   2.380       .  S
Zr229       O236   2.375       .  S
Zr230       O256   2.435       .  S
Zr230       O257   2.437       .  S
Zr230       O232   2.434       .  S
Zr230       O233   2.370       .  S
Zr230       O234   2.373       .  S
O231        H268   0.987       .  S
O232        H263   0.990       .  S
O232        H277   0.988       .  S
O234        H260   0.958       .  S
O235       Zr245   2.371       .  S
O236       Zr245   2.407       .  S
O236        H261   0.965       .  S
C237       C2141   1.483       .  S
C238       C1871   1.466       .  S
C239       C2241   1.530       .  S
O240        H276   0.990       .  S
O241        C243   1.254       .  A
O242        C243   1.294       .  A
C243       C1718   1.497       .  S
O244       Zr245   2.439       .  S
O244        H273   0.991       .  S
Zr245       O248   2.435       .  S
Zr245       O249   2.441       .  S
Zr245       O250   2.276       .  S
O246        C251   1.305       .  A
O247        H264   0.988       .  S
O247        H279   0.988       .  S
O248        H265   0.990       .  S
O249        H269   0.991       .  S
O249        H278   0.991       .  S
O250        C251   1.247       .  A
C251       C2021   1.469       .  S
O252        H271   0.990       .  S
O252        H275   0.990       .  S
O253        H267   0.988       .  S
O253        H274   0.986       .  S
O254        C258   1.307       .  A
O255        C258   1.259       .  A
O256        H266   0.990       .  S
O257        H270   0.990       .  S
C258       C1728   1.501       .  S
Zr281       O282   2.435       .  S
Zr281       O283   2.499       .  S
Zr281       O284   2.494       .  S
Zr281       O287   2.542       .  S
Zr281       O289   2.409       .  S
Zr281       O290   2.412   1_455  S
Zr281       O291   2.449       .  S
Zr281       O292   2.389       .  S
O282        H338   0.990       .  S
O282        H346   0.990       .  S
O283        C303   1.291       .  A
O284        C305   1.288       .  A
O285       Zr295   2.369       .  S
O285        C304   1.257       .  A
O286       Zr294   2.386       .  S
O286        C305   1.261       .  A
O287        C304   1.302   1_455  A
O288       Zr296   2.343   1_455  S
O288        C303   1.253       .  A
O289       Zr294   2.392       .  S
O289       Zr296   2.383   1_455  S
O290       Zr295   2.386       .  S
O290       Zr296   2.382       .  S
O290        H325   0.965       .  S
O291       Zr294   2.401       .  S
O291       Zr311   2.343       .  S
O291        H328   0.960       .  S
O292       Zr295   2.385   1_455  S
O292       Zr311   2.344       .  S
Zr293       O318   2.433       .  S
Zr293       O312   2.562       .  S
Zr293       O320   2.548       .  S
Zr293       O308   2.576       .  S
Zr293       O299   2.426       .  S
Zr293       O300   2.417       .  S
Zr293       O301   2.403   1_655  S
Zr293       O302   2.412       .  S
Zr294       O313   2.439       .  S
Zr294       O306   2.429       .  S
Zr294       O307   2.395       .  S
Zr294       O300   2.388   1_455  S
Zr294       O301   2.380       .  S
Zr295       O297   2.434       .  S
Zr295       O319   2.438       .  S
Zr295       O321   2.368       .  S
Zr295       O299   2.402       .  S
Zr295       O302   2.372       .  S
Zr296       O322   2.452       .  S
Zr296       O323   2.437       .  S
Zr296       O298   2.452       .  S
Zr296       O299   2.354       .  S
Zr296       O300   2.341       .  S
O297        H334   0.990       .  S
O298        H329   0.988       .  S
O298        H343   0.990   1_655  S
O300        H326   0.955       .  S
O301       Zr311   2.389       .  S
O302       Zr311   2.388   1_655  S
O302        H327   0.960       .  S
C303       C2011   1.471   1_455  S
C304       C1698   1.499       .  S
C305       C1711   1.495       .  S
O306        H342   0.990       .  S
O307        C309   1.264       .  A
O308        C309   1.309   1_655  A
C309       C1911   1.528       .  S
O310       Zr311   2.440       .  S
O310        H339   0.989       .  S
Zr311       O314   2.434       .  S
Zr311       O315   2.438       .  S
Zr311       O316   2.313   1_455  S
O312        C317   1.305       .  A
O313        H330   0.989       .  S
O313        H345   0.987       .  S
O314        H331   0.990       .  S
O315        H335   0.991       .  S
O315        H344   0.990   1_455  S
O316        C317   1.251       .  A
C317       C2281   1.478       .  S
O318        H337   0.989       .  S
O318        H341   0.990       .  S
O319        H333   0.990       .  S
O319        H340   0.989       .  S
O320        C324   1.300       .  A
O321        C324   1.247       .  A
O322        H332   0.989       .  S
O323        H336   0.990       .  S
C324       C2311   1.485       .  S
C347       C1688   1.620       .  S
C347       C1708   1.586       .  S
C347       C1731   1.621       .  S
C347       C1751   1.578       .  S
Zr348       O349   2.435       .  S
Zr348       O350   2.522       .  S
Zr348       O351   2.466       .  S
Zr348       O354   2.548       .  S
Zr348       O356   2.407       .  S
Zr348       O357   2.387       .  S
Zr348       O358   2.454       .  S
Zr348       O359   2.422       .  S
O349        H405   0.990       .  S
O349        H413   0.990       .  S
O350        C370   1.295       .  A
O351        C372   1.293       .  A
O352       Zr362   2.368       .  S
O352        C371   1.243       .  A
O353       Zr361   2.381       .  S
O353        C372   1.264       .  A
O354        C371   1.295       .  A
O355       Zr363   2.299       .  S
O355        C370   1.248       .  A
O356       Zr361   2.402       .  S
O356       Zr363   2.370       .  S
O357       Zr362   2.368       .  S
O357       Zr363   2.420       .  S
O357        H392   0.963       .  S
O358       Zr361   2.397       .  S
O358       Zr378   2.385       .  S
O358        H395   0.964       .  S
O359       Zr362   2.375       .  S
O359       Zr378   2.384       .  S
Zr360       O385   2.437       .  S
Zr360       O379   2.479       .  S
Zr360       O387   2.612       .  S
Zr360       O375   2.563       .  S
Zr360       O366   2.329       .  S
Zr360       O367   2.441       .  S
Zr360       O368   2.424       .  S
Zr360       O369   2.450       .  S
Zr361       O380   2.442       .  S
Zr361       O373   2.433       .  S
Zr361       O374   2.386       .  S
Zr361       O367   2.400       .  S
Zr361       O368   2.377       .  S
Zr362       O364   2.443       .  S
Zr362       O386   2.437       .  S
Zr362       O388   2.351       .  S
Zr362       O366   2.342       .  S
Zr362       O369   2.400       .  S
Zr363       O389   2.435       .  S
Zr363       O390   2.439       .  S
Zr363       O365   2.438       .  S
Zr363       O366   2.298       .  S
Zr363       O367   2.330       .  S
O364        H401   0.989       .  S
O365        H396   0.990       .  S
O365        H410   0.989       .  S
O367        H393   0.952       .  S
O368       Zr378   2.389       .  S
O369       Zr378   2.409       .  S
O369        H394   0.962       .  S
C370       C1791   1.454       .  S
C371       C1678   1.490       .  S
C372       C1821   1.488       .  S
O373        H409   0.990       .  S
O374        C376   1.263       .  A
O375        C376   1.303       .  A
C376       C1658   1.515       .  S
O377       Zr378   2.437       .  S
O377        H406   0.990       .  S
Zr378       O381   2.437       .  S
Zr378       O382   2.443       .  S
Zr378       O383   2.385       .  S
O379        C384   1.284       .  A
O380        H397   0.989       .  S
O380        H412   0.988       .  S
O381        H398   0.990       .  S
O382        H402   0.989       .  S
O382        H411   0.987       .  S
O383        C384   1.263       .  A
C384       C1671   1.485       .  S
O385        H404   0.990       .  S
O385        H408   0.990       .  S
O386        H400   0.987       .  S
O386        H407   0.990       .  S
O387        C391   1.307       .  A
O388        C391   1.256       .  A
O389        H399   0.991       .  S
O390        H403   0.990       .  S
C391       C1648   1.470       .  S
C414       C1618   1.601       .  S
C414       C1628   1.602       .  S
C414       C1638   1.616       .  S
C414       C1691   1.634       .  S
C415       C1598   1.582       .  S
C415       C1608   1.609       .  S
C415       C1641   1.613       .  S
C415       C2208   1.576       .  S
C416       C1591   1.561       .  S
C416       C1631   1.594       .  S
C416       C1668   1.598   1_556  S
C416       C2081   1.584       .  S
C417       C1548   1.609       .  S
C417       C1558   1.591       .  S
C417       C1568   1.618       .  S
C417       C1578   1.580       .  S
Zr418       O419   2.436       .  S
Zr418       O420   2.544       .  S
Zr418       O421   2.568       .  S
Zr418       O424   2.548       .  S
Zr418       O426   2.396       .  S
Zr418       O427   2.427       .  S
Zr418       O428   2.411       .  S
Zr418       O429   2.402       .  S
O419        H475   0.990       .  S
O419        H483   0.990       .  S
O420        C440   1.299       .  A
O421        C442   1.308       .  A
O422       Zr432   2.351       .  S
O422        C441   1.261       .  A
O423       Zr431   2.400       .  S
O423        C442   1.264       .  A
O424        C441   1.306       .  A
O425       Zr433   2.333       .  S
O425        C440   1.244       .  A
O426       Zr431   2.401       .  S
O426       Zr433   2.403       .  S
O427       Zr432   2.384       .  S
O427       Zr433   2.407       .  S
O427        H462   0.966       .  S
O428       Zr431   2.382       .  S
O428       Zr448   2.336       .  S
O428        H465   0.947       .  S
O429       Zr432   2.368       .  S
O429       Zr448   2.330       .  S
Zr430       O455   2.435       .  S
Zr430       O449   2.565       .  S
Zr430       O457   2.573       .  S
Zr430       O445   2.540       .  S
Zr430       O436   2.375       .  S
Zr430       O437   2.444       .  S
Zr430       O438   2.418       .  S
Zr430       O439   2.393       .  S
Zr431       O450   2.445       .  S
Zr431       O443   2.433       .  S
Zr431       O444   2.371       .  S
Zr431       O437   2.398       .  S
Zr431       O438   2.416       .  S
Zr432       O434   2.436       .  S
Zr432       O456   2.440       .  S
Zr432       O458   2.393       .  S
Zr432       O436   2.362       .  S
Zr432       O439   2.352       .  S
Zr433       O459   2.433       .  S
Zr433       O460   2.436       .  S
Zr433       O435   2.435       .  S
Zr433       O436   2.327       .  S
Zr433       O437   2.359       .  S
O434        H471   0.990       .  S
O435        H466   0.989       .  S
O435        H480   0.986       .  S
O437        H463   0.955       .  S
O438       Zr448   2.372       .  S
O439       Zr448   2.395       .  S
O439        H464   0.965       .  S
C440       C1521   1.484       .  S
C441       C1508   1.474       .  S
C442       C1991   1.512       .  S
O443        H479   0.990       .  S
O444        C446   1.259       .  A
O445        C446   1.294       .  A
C446       C1528   1.517       .  S
O447       Zr448   2.445       .  S
O447        H476   0.990       .  S
Zr448       O451   2.439       .  S
Zr448       O452   2.442       .  S
Zr448       O453   2.300       .  S
O449        C454   1.314       .  A
O450        H467   0.989       .  S
O450        H482   0.988       .  S
O451        H468   0.990       .  S
O452        H472   0.990       .  S
O452        H481   0.990       .  S
O453        C454   1.257       .  A
C454       C1538   1.484       .  S
O455        H474   0.990       .  S
O455        H478   0.990       .  S
O456        H470   0.989       .  S
O456        H477   0.990       .  S
O457        C461   1.310       .  A
O458        C461   1.263       .  A
O459        H469   0.991       .  S
O460        H473   0.990       .  S
C461       C1561   1.510       .  S
C484       C1481   1.570       .  S
C484       C1488   1.620       .  S
C484       C1498   1.594       .  S
C484       C1531   1.612       .  S
Zr485       O486   2.436       .  S
Zr485       O487   2.531       .  S
Zr485       O488   2.504       .  S
Zr485       O491   2.512       .  S
Zr485       O493   2.393       .  S
Zr485       O494   2.412   1_565  S
Zr485       O495   2.430       .  S
Zr485       O496   2.394       .  S
O486        H542   0.990       .  S
O486        H550   0.990       .  S
O487        C507   1.300       .  A
O488        C509   1.303       .  A
O489       Zr499   2.404       .  S
O489        C508   1.267   1_545  A
O490       Zr498   2.354       .  S
O490        C509   1.266       .  A
O491        C508   1.293       .  A
O492       Zr500   2.364   1_565  S
O492        C507   1.261       .  A
O493       Zr498   2.392       .  S
O493       Zr500   2.390   1_565  S
O494       Zr499   2.394       .  S
O494       Zr500   2.388       .  S
O494        H529   0.966       .  S
O495       Zr498   2.397       .  S
O495       Zr515   2.356       .  S
O495        H532   0.961       .  S
O496       Zr499   2.368   1_565  S
O496       Zr515   2.337       .  S
Zr497       O522   2.435       .  S
Zr497       O516   2.574       .  S
Zr497       O524   2.539       .  S
Zr497       O512   2.558       .  S
Zr497       O503   2.419       .  S
Zr497       O504   2.453       .  S
Zr497       O505   2.391   1_545  S
Zr497       O506   2.416       .  S
Zr498       O517   2.436       .  S
Zr498       O510   2.433       .  S
Zr498       O511   2.389       .  S
Zr498       O504   2.383   1_565  S
Zr498       O505   2.410       .  S
Zr499       O501   2.439       .  S
Zr499       O523   2.442       .  S
Zr499       O525   2.374       .  S
Zr499       O503   2.364       .  S
Zr499       O506   2.404       .  S
Zr500       O526   2.438       .  S
Zr500       O527   2.437       .  S
Zr500       O502   2.437       .  S
Zr500       O503   2.354       .  S
Zr500       O504   2.358       .  S
O501        H538   0.990       .  S
O502        H533   0.989       .  S
O502        H547   0.990   1_545  S
O504        H530   0.953       .  S
O505       Zr515   2.382       .  S
O506       Zr515   2.398   1_545  S
O506        H531   0.965       .  S
C507       C2271   1.509       .  S
C508       C2351   1.503       .  S
C509       C2301   1.474       .  S
O510        H546   0.990       .  S
O511        C513   1.261       .  A
O512        C513   1.300   1_545  A
C513       C1458   1.532       .  S
O514       Zr515   2.440       .  S
O514        H543   0.990       .  S
Zr515       O518   2.438       .  S
Zr515       O519   2.437       .  S
Zr515       O520   2.328       .  S
O516        C521   1.311   1_545  A
O517        H534   0.990       .  S
O517        H549   0.989       .  S
O518        H535   0.990       .  S
O519        H539   0.990       .  S
O519        H548   0.990       .  S
O520        C521   1.255       .  A
C521       C1611   1.500       .  S
O522        H541   0.990       .  S
O522        H545   0.989       .  S
O523        H537   0.989       .  S
O523        H544   0.990       .  S
O524        C528   1.292       .  A
O525        C528   1.264       .  A
O526        H536   0.990       .  S
O527        H540   0.990       .  S
C528       C1468   1.486       .  S
C551       C1448   1.596       .  S
C551       C1471   1.579       .  S
C551       C2061   1.607       .  S
C551       C2181   1.558       .  S
Zr552       O553   2.437       .  S
Zr552       O554   2.487       .  S
Zr552       O555   2.468       .  S
Zr552       O558   2.509       .  S
Zr552       O560   2.410       .  S
Zr552       O561   2.415       .  S
Zr552       O562   2.438       .  S
Zr552       O563   2.399       .  S
O553        H609   0.990       .  S
O553        H617   0.990       .  S
O554        C574   1.284       .  A
O555        C576   1.294       .  A
O556       Zr566   2.391       .  S
O556        C575   1.260       .  A
O557       Zr565   2.362       .  S
O557        C576   1.264       .  A
O558        C575   1.293       .  A
O559       Zr567   2.374       .  S
O559        C574   1.259       .  A
O560       Zr565   2.394       .  S
O560       Zr567   2.388       .  S
O561       Zr566   2.378       .  S
O561       Zr567   2.379       .  S
O561        H596   0.960       .  S
O562       Zr565   2.395       .  S
O562       Zr582   2.390       .  S
O562        H599   0.965       .  S
O563       Zr566   2.377       .  S
O563       Zr582   2.343       .  S
Zr564       O589   2.435       .  S
Zr564       O583   2.563       .  S
Zr564       O591   2.530       .  S
Zr564       O579   2.512       .  S
Zr564       O570   2.416       .  S
Zr564       O571   2.440       .  S
Zr564       O572   2.396       .  S
Zr564       O573   2.404       .  S
Zr565       O584   2.435       .  S
Zr565       O577   2.437       .  S
Zr565       O578   2.395       .  S
Zr565       O571   2.379       .  S
Zr565       O572   2.374       .  S
Zr566       O568   2.433       .  S
Zr566       O590   2.440       .  S
Zr566       O592   2.353       .  S
Zr566       O570   2.395       .  S
Zr566       O573   2.384       .  S
Zr567       O593   2.431       .  S
Zr567       O594   2.441       .  S
Zr567       O569   2.440       .  S
Zr567       O570   2.351       .  S
Zr567       O571   2.343       .  S
O568        H605   0.990       .  S
O569        H600   0.989       .  S
O569        H614   0.990       .  S
O571        H597   0.959       .  S
O572       Zr582   2.390       .  S
O573       Zr582   2.388       .  S
O573        H598   0.965       .  S
C574       C1438   1.487       .  S
C575       C1501   1.491       .  S
C576       C1581   1.474       .  S
O577        H613   0.990       .  S
O578        C580   1.270       .  A
O579        C580   1.298       .  A
C580       C1451   1.481       .  S
O581       Zr582   2.441       .  S
O581        H610   0.990       .  S
Zr582       O585   2.440       .  S
Zr582       O586   2.442       .  S
Zr582       O587   2.338       .  S
O583        C588   1.306       .  A
O584        H601   0.990       .  S
O584        H616   0.989       .  S
O585        H602   0.990       .  S
O586        H606   0.987       .  S
O586        H615   0.990       .  S
O587        C588   1.248       .  A
C588       C1418   1.503       .  S
O589        H608   0.990       .  S
O589        H612   0.990       .  S
O590        H604   0.990       .  S
O590        H611   0.990       .  S
O591        C595   1.297       .  A
O592        C595   1.251       .  A
O593        H603   0.990       .  S
O594        H607   0.990       .  S
C595       C1428   1.486       .  S
C618       C1378   1.611       .  S
C618       C1388   1.624       .  S
C618       C1398   1.634       .  S
C618       C1408   1.630       .  S
C619       C1368   1.581       .  S
C619       C1401   1.611       .  S
C619       C1431   1.587       .  S
C619       C1461   1.618       .  S
C620       C1361   1.584       .  S
C620       C1391   1.616       .  S
C620       C1701   1.582       .  S
C620       C1758   1.598   1_655  S
C621       C1411   1.635       .  S
C621       C1511   1.585       .  S
C621       C1651   1.612       .  S
C621       C2101   1.602       .  S
C622       C1338   1.614       .  S
C622       C1348   1.639       .  S
C622       C1721   1.581       .  S
C622       C1741   1.588       .  S
Zr623       O624   2.436       .  S
Zr623       O625   2.438       .  S
Zr623       O626   2.507   1_554  S
Zr623       O629   2.546       .  S
Zr623       O631   2.369   1_554  S
Zr623       O632   2.411       .  S
Zr623       O633   2.406   1_554  S
Zr623       O634   2.355       .  S
O624        H680   0.990       .  S
O624        H688   0.990       .  S
O625        C645   1.288   1_554  A
O626        C647   1.303       .  A
O627       Zr637   2.356       .  S
O627        C646   1.256       .  A
O628       Zr636   2.355       .  S
O628        C647   1.263       .  A
O629        C646   1.305       .  A
O630       Zr638   2.353       .  S
O630        C645   1.267       .  A
O631       Zr636   2.354       .  S
O631       Zr638   2.379       .  S
O632       Zr637   2.376       .  S
O632       Zr638   2.382   1_554  S
O632        H667   0.963       .  S
O633       Zr636   2.383       .  S
O633       Zr653   2.374   1_556  S
O633        H670   0.965   1_556  S
O634       Zr637   2.373       .  S
O634       Zr653   2.326       .  S
Zr635       O660   2.437       .  S
Zr635       O654   2.486       .  S
Zr635       O662   2.530       .  S
Zr635       O650   2.550       .  S
Zr635       O641   2.423       .  S
Zr635       O642   2.438       .  S
Zr635       O643   2.399       .  S
Zr635       O644   2.448   1_556  S
Zr636       O655   2.448       .  S
Zr636       O648   2.441       .  S
Zr636       O649   2.354       .  S
Zr636       O642   2.400       .  S
Zr636       O643   2.368       .  S
Zr637       O639   2.441       .  S
Zr637       O661   2.452       .  S
Zr637       O663   2.374       .  S
Zr637       O641   2.390   1_554  S
Zr637       O644   2.424       .  S
Zr638       O664   2.437       .  S
Zr638       O665   2.438       .  S
Zr638       O640   2.448       .  S
Zr638       O641   2.363       .  S
Zr638       O642   2.369       .  S
O639        H676   0.990       .  S
O640        H671   0.989       .  S
O640        H685   0.989       .  S
O642        H668   0.964       .  S
O643       Zr653   2.369   1_556  S
O644       Zr653   2.411       .  S
O644        H669   0.964       .  S
C645       C1588   1.448       .  S
C646       C1328   1.466       .  S
C647       C1981   1.485       .  S
O648        H684   0.990       .  S
O649        C651   1.255       .  A
O650        C651   1.304       .  A
C651       C2151   1.506       .  S
O652       Zr653   2.436       .  S
O652        H681   0.990       .  S
Zr653       O656   2.438       .  S
Zr653       O657   2.438       .  S
Zr653       O658   2.362   1_554  S
O654        C659   1.284       .  A
O655        H672   0.984       .  S
O655        H687   0.989       .  S
O656        H673   0.990       .  S
O657        H677   0.989       .  S
O657        H686   0.985       .  S
O658        C659   1.257       .  A
C659       C2108   1.480   1_556  S
O660        H679   0.990       .  S
O660        H683   0.990       .  S
O661        H675   0.985       .  S
O661        H682   0.990       .  S
O662        C666   1.297   1_556  A
O663        C666   1.254       .  A
O664        H674   0.990       .  S
O665        H678   0.990       .  S
C666       C1858   1.500       .  S
C689       C1321   1.649       .  S
C689       C1331   1.589       .  S
C689       C1518   1.597       .  S
C689       C1661   1.615       .  S
C690       C1301   1.634       .  S
C690       C1308   1.617       .  S
C690       C1318   1.637       .  S
C690       C1351   1.632       .  S
C691       C1288   1.630       .  S
C691       C1298   1.621       .  S
C691       C1421   1.596       .  S
C691       C2171   1.572       .  S
Zr692       O693   2.435       .  S
Zr692       O694   2.483       .  S
Zr692       O695   2.490       .  S
Zr692       O698   2.607       .  S
Zr692       O700   2.407   1_565  S
Zr692       O701   2.426       .  S
Zr692       O702   2.441       .  S
Zr692       O703   2.311       .  S
O693        H749   0.990       .  S
O693        H757   0.990       .  S
O694        C714   1.285       .  A
O695        C716   1.296       .  A
O696       Zr706   2.374       .  S
O696        C715   1.266       .  A
O697       Zr705   2.365       .  S
O697        C716   1.260   1_545  A
O698        C715   1.323       .  A
O699       Zr707   2.370       .  S
O699        C714   1.254   1_545  A
O700       Zr705   2.386       .  S
O700       Zr707   2.392       .  S
O701       Zr706   2.357       .  S
O701       Zr707   2.407   1_565  S
O701        H736   0.960       .  S
O702       Zr705   2.408   1_565  S
O702       Zr722   2.386       .  S
O702        H739   0.965       .  S
O703       Zr706   2.336       .  S
O703       Zr722   2.324       .  S
Zr704       O729   2.433       .  S
Zr704       O723   2.514       .  S
Zr704       O731   2.521   1_545  S
Zr704       O719   2.566       .  S
Zr704       O710   2.436   1_545  S
Zr704       O711   2.424       .  S
Zr704       O712   2.409   1_545  S
Zr704       O713   2.424   1_545  S
Zr705       O724   2.439       .  S
Zr705       O717   2.430       .  S
Zr705       O718   2.415       .  S
Zr705       O711   2.380       .  S
Zr705       O712   2.381   1_545  S
Zr706       O708   2.442       .  S
Zr706       O730   2.443       .  S
Zr706       O732   2.342       .  S
Zr706       O710   2.389       .  S
Zr706       O713   2.410       .  S
Zr707       O733   2.431       .  S
Zr707       O734   2.436       .  S
Zr707       O709   2.441       .  S
Zr707       O710   2.376   1_545  S
Zr707       O711   2.328       .  S
O708        H745   0.990       .  S
O709        H740   0.990       .  S
O709        H754   0.990       .  S
O711        H737   0.954       .  S
O712       Zr722   2.390       .  S
O713       Zr722   2.401       .  S
O713        H738   0.960       .  S
C714       C1278   1.469   1_565  S
C715       C1771   1.501       .  S
C716       C1938   1.492       .  S
O717        H753   0.991       .  S
O718        C720   1.270       .  A
O719        C720   1.306       .  A
C720       C1291   1.531       .  S
O721       Zr722   2.438       .  S
O721        H750   0.990       .  S
Zr722       O725   2.432       .  S
Zr722       O726   2.439       .  S
Zr722       O727   2.357       .  S
O723        C728   1.294   1_545  A
O724        H741   0.990       .  S
O724        H756   0.989   1_545  S
O725        H742   0.990       .  S
O726        H746   0.991       .  S
O726        H755   0.990       .  S
O727        C728   1.248       .  A
C728       C1601   1.464       .  S
O729        H748   0.990       .  S
O729        H752   0.990       .  S
O730        H744   0.987       .  S
O730        H751   0.990       .  S
O731        C735   1.303       .  A
O732        C735   1.249       .  A
O733        H743   0.990       .  S
O734        H747   0.990       .  S
C735       C1371   1.478       .  S
C758       C1258   1.590   1_565  S
C758       C1268   1.592       .  S
C758       C1281   1.583   1_565  S
C758       C1681   1.615       .  S
C759       C1241   1.614       .  S
C759       C1248   1.595       .  S
C759       C1541   1.601   1_455  S
C759       C1808   1.634       .  S
Zr760       O761   2.436       .  S
Zr760       O762   2.484       .  S
Zr760       O763   2.532       .  S
Zr760       O766   2.537       .  S
Zr760       O768   2.410   1_655  S
Zr760       O769   2.419       .  S
Zr760       O770   2.423       .  S
Zr760       O771   2.413       .  S
O761        H817   0.990       .  S
O761        H825   0.990       .  S
O762        C782   1.296       .  A
O763        C784   1.297   1_655  A
O764       Zr774   2.377       .  S
O764        C783   1.253       .  A
O765       Zr773   2.393       .  S
O765        C784   1.263       .  A
O766        C783   1.296       .  A
O767       Zr775   2.323   1_655  S
O767        C782   1.258       .  A
O768       Zr773   2.373       .  S
O768       Zr775   2.380       .  S
O769       Zr774   2.383       .  S
O769       Zr775   2.397   1_655  S
O769        H804   0.964       .  S
O770       Zr773   2.389   1_655  S
O770       Zr790   2.341       .  S
O770        H807   0.951       .  S
O771       Zr774   2.393       .  S
O771       Zr790   2.356       .  S
Zr772       O797   2.434       .  S
Zr772       O791   2.455       .  S
Zr772       O799   2.552       .  S
Zr772       O787   2.533       .  S
Zr772       O778   2.400       .  S
Zr772       O779   2.437       .  S
Zr772       O780   2.406       .  S
Zr772       O781   2.440   1_455  S
Zr773       O792   2.432       .  S
Zr773       O785   2.434       .  S
Zr773       O786   2.355       .  S
Zr773       O779   2.396       .  S
Zr773       O780   2.378       .  S
Zr774       O776   2.434       .  S
Zr774       O798   2.438       .  S
Zr774       O800   2.386       .  S
Zr774       O778   2.396   1_655  S
Zr774       O781   2.383       .  S
Zr775       O801   2.443       .  S
Zr775       O802   2.443       .  S
Zr775       O777   2.436       .  S
Zr775       O778   2.348       .  S
Zr775       O779   2.356       .  S
O776        H813   0.990       .  S
O777        H808   0.990       .  S
O777        H822   0.990       .  S
O779        H805   0.966       .  S
O780       Zr790   2.387   1_455  S
O781       Zr790   2.392       .  S
O781        H806   0.962       .  S
C782       C1228   1.457       .  S
C783       C1551   1.497       .  S
C784       C1238   1.503       .  S
O785        H821   0.990       .  S
O786        C788   1.258       .  A
O787        C788   1.306       .  A
C788       C1341   1.508       .  S
O789       Zr790   2.441       .  S
O789        H818   0.990       .  S
Zr790       O793   2.437       .  S
Zr790       O794   2.444       .  S
Zr790       O795   2.371   1_655  S
O791        C796   1.276       .  A
O792        H809   0.986       .  S
O792        H824   0.988       .  S
O793        H810   0.990       .  S
O794        H814   0.988       .  S
O794        H823   0.986       .  S
O795        C796   1.257       .  A
C796       C1358   1.467   1_455  S
O797        H816   0.990       .  S
O797        H820   0.990       .  S
O798        H812   0.989       .  S
O798        H819   0.990       .  S
O799        C803   1.304   1_455  A
O800        C803   1.259       .  A
O801        H811   0.990       .  S
O802        H815   0.990       .  S
C803       C2001   1.504       .  S
C826       C1218   1.593       .  S
C826       C1231   1.570       .  S
C826       C1441   1.600   1_455  S
C826       C1928   1.603       .  S
C827       C1188   1.590       .  S
C827       C1198   1.565       .  S
C827       C1211   1.610   1_556  S
C827       C1621   1.591       .  S
Zr828       O829   2.448       .  S
Zr828       O830   2.452       .  S
Zr828       O831   2.435   1_545  S
Zr828       O834   2.341       .  S
Zr828       O836   2.403   1_655  S
Zr828       O837   2.391   1_554  S
Zr828       O838   2.417   1_545  S
Zr828       O839   2.430   1_544  S
O829        H885   0.991       .  S
O829        H893   0.991       .  S
O830        C850   1.282       .  A
O831        C852   1.282       .  A
O832       Zr842   2.459   1_545  S
O832        C851   1.286       .  A
O833       Zr841   2.454       .  S
O833        C852   1.293   1_455  A
O834        C851   1.270   1_554  A
O835       Zr843   2.387       .  S
O835        C850   1.279   1_456  A
O836       Zr841   2.408   1_545  S
O836       Zr843   2.367   1_554  S
O837       Zr842   2.362   1_545  S
O837       Zr843   2.394   1_655  S
O837        H872   0.962       .  S
O838       Zr841   2.429   1_655  S
O838       Zr858   2.361   1_554  S
O838        H875   0.961       .  S
O839       Zr842   2.393       .  S
O839       Zr858   2.387       .  S
Zr840       O865   2.429       .  S
Zr840       O859   2.478       .  S
Zr840       O867   2.448       .  S
Zr840       O855   2.301       .  S
Zr840       O846   2.299   1_455  S
Zr840       O847   2.441       .  S
Zr840       O848   2.297       .  S
Zr840       O849   2.386   1_455  S
Zr841       O860   2.436       .  S
Zr841       O853   2.436       .  S
Zr841       O854   2.531       .  S
Zr841       O847   2.391   1_554  S
Zr841       O848   2.326   1_554  S
Zr842       O844   2.439       .  S
Zr842       O866   2.436   1_565  S
Zr842       O868   2.487   1_565  S
Zr842       O846   2.290       .  S
Zr842       O849   2.408       .  S
Zr843       O869   2.435       .  S
Zr843       O870   2.440       .  S
Zr843       O845   2.438   1_556  S
Zr843       O846   2.345   1_445  S
Zr843       O847   2.398   1_545  S
O844        H881   0.990       .  S
O845        H876   0.990       .  S
O845        H890   0.990       .  S
O847        H873   0.964       .  S
O848       Zr858   2.320   1_455  S
O849       Zr858   2.387       .  S
O849        H874   0.965       .  S
C850       C1168   1.456       .  S
C851       C2341   1.439       .  S
C852       C1178   1.455       .  S
O853        H889   0.990       .  S
O854        C856   1.306   1_554  A
O855        C856   1.266       .  A
C856       C1201   1.451       .  S
O857       Zr858   2.434   1_554  S
O857        H886   0.990       .  S
Zr858       O861   2.439   1_556  S
Zr858       O862   2.435       .  S
Zr858       O863   2.437   1_556  S
O859        C864   1.289       .  A
O860        H877   0.990       .  S
O860        H892   0.990       .  S
O861        H878   0.990       .  S
O862        H882   0.990       .  S
O862        H891   0.990       .  S
O863        C864   1.287   1_654  A
C864       C1898   1.451       .  S
O865        H884   0.990       .  S
O865        H888   0.989       .  S
O866        H880   0.990       .  S
O866        H887   0.990       .  S
O867        C871   1.291       .  A
O868        C871   1.299   1_645  A
O869        H879   0.991       .  S
O870        H883   0.989       .  S
C871       C2261   1.486   1_565  S
C894       C1148   1.598       .  S
C894       C1158   1.587   1_655  S
C894       C1181   1.586       .  S
C894       C1381   1.611       .  S
C895       C1128   1.633   1_556  S
C895       C1141   1.593   1_655  S
C895       C1171   1.591       .  S
C895       C2031   1.616       .  S
Zr896       O897   2.427       .  S
Zr896       O898   2.511       .  S
Zr896       O899   2.511       .  S
Zr896       O902   2.532       .  S
Zr896       O904   2.385   1_556  S
Zr896       O905   2.432       .  S
Zr896       O906   2.437       .  S
Zr896       O907   2.411       .  S
O897        H953   0.990       .  S
O897        H961   0.990       .  S
O898        C918   1.293       .  A
O899        C920   1.299   1_556  A
O900       Zr910   2.392       .  S
O900        C919   1.260       .  A
O901       Zr909   2.364       .  S
O901        C920   1.258       .  A
O902        C919   1.298       .  A
O903       Zr911   2.355   1_556  S
O903        C918   1.257       .  A
O904       Zr909   2.410       .  S
O904       Zr911   2.390       .  S
O905       Zr910   2.399       .  S
O905       Zr911   2.376   1_556  S
O905        H940   0.966       .  S
O906       Zr909   2.387   1_556  S
O906       Zr926   2.371       .  S
O906        H943   0.964       .  S
O907       Zr910   2.382       .  S
O907       Zr926   2.328       .  S
Zr908       O933   2.436       .  S
Zr908       O927   2.567   1_554  S
Zr908       O935   2.538       .  S
Zr908       O923   2.558       .  S
Zr908       O914   2.416   1_554  S
Zr908       O915   2.415       .  S
Zr908       O916   2.407       .  S
Zr908       O917   2.401   1_554  S
Zr909       O928   2.439       .  S
Zr909       O921   2.432       .  S
Zr909       O922   2.384       .  S
Zr909       O915   2.375       .  S
Zr909       O916   2.384       .  S
Zr910       O912   2.436       .  S
Zr910       O934   2.444       .  S
Zr910       O936   2.390       .  S
Zr910       O914   2.367       .  S
Zr910       O917   2.360       .  S
Zr911       O937   2.433       .  S
Zr911       O938   2.437       .  S
Zr911       O913   2.436       .  S
Zr911       O914   2.352   1_554  S
Zr911       O915   2.346       .  S
O912        H949   0.990       .  S
O913        H944   0.989       .  S
O913        H958   0.988       .  S
O915        H941   0.944       .  S
O916       Zr926   2.385   1_554  S
O917       Zr926   2.428       .  S
O917        H942   0.966       .  S
C918       C2121   1.477   1_556  S
C919       C2221   1.504       .  S
C920       C1891   1.500       .  S
O921        H957   0.990       .  S
O922        C924   1.260       .  A
O923        C924   1.299       .  A
C924       C1118   1.518       .  S
O925       Zr926   2.441       .  S
O925        H954   0.990       .  S
Zr926       O929   2.427       .  S
Zr926       O930   2.442       .  S
Zr926       O931   2.314       .  S
O927        C932   1.308       .  A
O928        H945   0.989       .  S
O928        H960   0.988       .  S
O929        H946   0.990       .  S
O930        H950   0.991       .  S
O930        H959   0.990       .  S
O931        C932   1.249       .  A
C932       C1138   1.471       .  S
O933        H952   0.990       .  S
O933        H956   0.990       .  S
O934        H948   0.990       .  S
O934        H955   0.989       .  S
O935        C939   1.305   1_554  A
O936        C939   1.272       .  A
O937        H947   0.991       .  S
O938        H951   0.990       .  S
C939       C1191   1.480       .  S
Zr962       O963   2.435       .  S
Zr962       O964   2.459       .  S
Zr962       O965   2.523       .  S
Zr962       O968   2.563       .  S
Zr962       O970   2.400       .  S
Zr962       O971   2.429       .  S
Zr962       O972   2.423       .  S
Zr962       O973   2.379       .  S
O963       H1019   0.990       .  S
O963       H1027   0.990       .  S
O964        C984   1.291       .  A
O965        C986   1.300       .  A
O966       Zr976   2.394   1_565  S
O966        C985   1.263       .  A
O967       Zr975   2.375       .  S
O967        C986   1.260       .  A
O968        C985   1.307       .  A
O969       Zr977   2.378       .  S
O969        C984   1.265       .  A
O970       Zr975   2.378       .  S
O970       Zr977   2.375       .  S
O971       Zr976   2.387   1_565  S
O971       Zr977   2.380       .  S
O971       H1006   0.966       .  S
O972       Zr975   2.407       .  S
O972       Zr992   2.348       .  S
O972       H1009   0.960       .  S
O973       Zr976   2.391   1_565  S
O973       Zr992   2.322       .  S
Zr974       O999   2.436       .  S
Zr974       O993   2.580   1_545  S
Zr974      O1001   2.528       .  S
Zr974       O989   2.509   1_545  S
Zr974       O980   2.432       .  S
Zr974       O981   2.448   1_545  S
Zr974       O982   2.412   1_545  S
Zr974       O983   2.401   1_545  S
Zr975       O994   2.437       .  S
Zr975       O987   2.431       .  S
Zr975       O988   2.404       .  S
Zr975       O981   2.377       .  S
Zr975       O982   2.398       .  S
Zr976       O978   2.432       .  S
Zr976      O1000   2.437       .  S
Zr976      O1002   2.375       .  S
Zr976       O980   2.377       .  S
Zr976       O983   2.370   1_545  S
Zr977      O1003   2.437   1_565  S
Zr977      O1004   2.435   1_565  S
Zr977       O979   2.441       .  S
Zr977       O980   2.373   1_565  S
Zr977       O981   2.359       .  S
O978       H1015   0.991       .  S
O979       H1010   0.990       .  S
O979       H1024   0.988       .  S
O981       H1007   0.955       .  S
O982       Zr992   2.387       .  S
O983       Zr992   2.417       .  S
O983       H1008   0.965   1_565  S
C984       C1271   1.482       .  S
C985       C1951   1.512       .  S
C986       C1841   1.477       .  S
O987       H1023   0.990       .  S
O988        C990   1.266       .  A
O989        C990   1.288       .  A
C990       C1208   1.512       .  S
O991       Zr992   2.438       .  S
O991       H1020   0.990       .  S
Zr992       O995   2.430       .  S
Zr992       O996   2.439       .  S
Zr992       O997   2.320       .  S
O993        C998   1.306       .  A
O994       H1011   0.988       .  S
O994       H1026   0.989       .  S
O995       H1012   0.990       .  S
O996       H1016   0.990       .  S
O996       H1025   0.990       .  S
O997        C998   1.242       .  A
C998       C1161   1.493       .  S
O999       H1018   0.990       .  S
O999       H1022   0.990       .  S
O1000      H1014   0.990       .  S
O1000      H1021   0.990       .  S
O1001      C1005   1.297       .  A
O1002      C1005   1.256       .  A
O1003      H1013   0.990       .  S
O1004      H1017   0.991       .  S
C1005      C1108   1.489       .  S
Zr1028     O1029   2.435       .  S
Zr1028     O1030   2.493       .  S
Zr1028     O1031   2.580       .  S
Zr1028     O1034   2.546       .  S
Zr1028     O1036   2.407       .  S
Zr1028     O1037   2.430       .  S
Zr1028     O1038   2.427   1_455  S
Zr1028     O1039   2.402   1_455  S
O1029      H1085   0.990       .  S
O1029      H1093   0.990       .  S
O1030      C1050   1.297       .  A
O1031      C1052   1.306       .  A
O1032     Zr1042   2.372       .  S
O1032      C1051   1.259       .  A
O1033     Zr1041   2.391       .  S
O1033      C1052   1.258       .  A
O1034      C1051   1.291   1_455  A
O1035     Zr1043   2.324       .  S
O1035      C1050   1.249       .  A
O1036     Zr1041   2.390       .  S
O1036     Zr1043   2.388       .  S
O1037     Zr1042   2.390   1_455  S
O1037     Zr1043   2.409       .  S
O1037      H1072   0.963       .  S
O1038     Zr1041   2.385   1_655  S
O1038     Zr1058   2.314       .  S
O1038      H1075   0.951       .  S
O1039     Zr1042   2.388       .  S
O1039     Zr1058   2.305       .  S
Zr1040     O1065   2.436       .  S
Zr1040     O1059   2.503       .  S
Zr1040     O1067   2.521       .  S
Zr1040     O1055   2.521       .  S
Zr1040     O1046   2.401       .  S
Zr1040     O1047   2.428   1_655  S
Zr1040     O1048   2.395       .  S
Zr1040     O1049   2.404       .  S
Zr1041     O1060   2.434   1_455  S
Zr1041     O1053   2.431       .  S
Zr1041     O1054   2.360   1_455  S
Zr1041     O1047   2.400       .  S
Zr1041     O1048   2.402   1_455  S
Zr1042     O1044   2.442       .  S
Zr1042     O1066   2.458   1_655  S
Zr1042     O1068   2.383       .  S
Zr1042     O1046   2.385       .  S
Zr1042     O1049   2.376       .  S
Zr1043     O1069   2.435       .  S
Zr1043     O1070   2.439       .  S
Zr1043     O1045   2.447       .  S
Zr1043     O1046   2.343   1_455  S
Zr1043     O1047   2.358       .  S
O1044      H1081   0.988       .  S
O1045      H1076   0.989       .  S
O1045      H1090   0.989       .  S
O1047      H1073   0.955       .  S
O1048     Zr1058   2.380       .  S
O1049     Zr1058   2.398       .  S
O1049      H1074   0.966       .  S
C1050      C1098   1.459       .  S
C1051      C1151   1.479       .  S
C1052      C1131   1.529       .  S
O1053      H1089   0.990       .  S
O1054      C1056   1.255       .  A
O1055      C1056   1.290       .  A
C1056      C1251   1.500       .  S
O1057     Zr1058   2.439       .  S
O1057      H1086   0.990       .  S
Zr1058     O1061   2.439       .  S
Zr1058     O1062   2.441       .  S
Zr1058     O1063   2.258       .  S
O1059      C1064   1.298       .  A
O1060      H1077   0.988   1_655  S
O1060      H1092   0.988       .  S
O1061      H1078   0.990       .  S
O1062      H1082   0.990       .  S
O1062      H1091   0.990       .  S
O1063      C1064   1.249       .  A
C1064      C1478   1.437       .  S
O1065      H1084   0.990       .  S
O1065      H1088   0.990       .  S
O1066      H1080   0.987       .  S
O1066      H1087   0.986       .  S
O1067      C1071   1.297       .  A
O1068      C1071   1.261       .  A
O1069      H1079   0.990       .  S
O1070      H1083   0.990       .  S
C1071      C1221   1.505       .  S
C1094      C1101   1.589       .  S
C1094      C1111   1.588       .  S
C1094      C1121   1.594       .  S
C1094      C1311   1.613       .  S
C1095      C1261   1.631       .  S
C1095      C1491   1.654       .  S
C1095      C2131   1.589       .  S
C1095      C2371   1.617       .  S
C1096      C1571   1.634       .  S
C1096      C1778   1.629       .  S
C1096      C2158   1.611       .  S
C1096      C2328   1.612       .  S
C1097      C1098   1.363       .  A
C1097      C1102   1.363       .  A
C1097      F1104   1.362       .  S
C1098      C1099   1.422       .  A
C1099      C1100   1.410       .  A
C1099      F1106   1.356       .  S
C1100      C1101   1.411       .  A
C1100      F1105   1.353       .  S
C1101      C1102   1.442       .  A
C1102      F1103   1.335       .  S
C1107      C1108   1.413       .  A
C1107      C1112   1.406       .  A
C1107      F1114   1.358       .  S
C1108      C1109   1.409       .  A
C1109      C1110   1.410       .  A
C1109      F1116   1.352       .  S
C1110      C1111   1.413       .  A
C1110      F1115   1.352       .  S
C1111      C1112   1.420       .  A
C1112      F1113   1.357       .  S
C1117      C1118   1.413       .  A
C1117      C1122   1.412       .  A
C1117      F1124   1.358       .  S
C1118      C1119   1.426       .  A
C1119      C1120   1.417       .  A
C1119      F1126   1.350       .  S
C1120      C1121   1.407       .  A
C1120      F1125   1.350       .  S
C1121      C1122   1.426       .  A
C1122      F1123   1.349       .  S
C1127      C1128   1.417       .  A
C1127      C1132   1.416   1_655  A
C1127      F1134   1.354   1_655  S
C1128      C1129   1.430       .  A
C1129      C1130   1.427       .  A
C1129      F1136   1.357       .  S
C1130      C1131   1.423   1_655  A
C1130      F1135   1.351       .  S
C1131      C1132   1.418       .  A
C1132      F1133   1.358       .  S
C1137      C1138   1.409       .  A
C1137      C1142   1.407       .  A
C1137      F1144   1.354       .  S
C1138      C1139   1.410       .  A
C1139      C1140   1.406       .  A
C1139      F1146   1.358       .  S
C1140      C1141   1.425       .  A
C1140      F1145   1.353   1_455  S
C1141      C1142   1.406       .  A
C1142      F1143   1.354       .  S
C1147      C1148   1.425   1_445  A
C1147      C1152   1.409       .  A
C1147      F1154   1.353       .  S
C1148      C1149   1.418   1_565  A
C1149      C1150   1.403       .  A
C1149      F1156   1.358   1_545  S
C1150      C1151   1.418       .  A
C1150      F1155   1.358       .  S
C1151      C1152   1.402   1_655  A
C1152      F1153   1.356       .  S
C1157      C1158   1.393       .  A
C1157      C1162   1.408       .  A
C1157      F1164   1.358       .  S
C1158      C1159   1.434       .  A
C1159      C1160   1.411       .  A
C1159      F1166   1.357       .  S
C1160      C1161   1.406       .  A
C1160      F1165   1.357       .  S
C1161      C1162   1.424       .  A
C1162      F1163   1.358       .  S
C1167      C1168   1.370       .  A
C1167      C1172   1.359   1_554  A
C1167      F1174   1.363   1_655  S
C1168      C1169   1.414   1_554  A
C1169      C1170   1.423       .  A
C1169      F1176   1.357       .  S
C1170      C1171   1.424       .  A
C1170      F1175   1.355       .  S
C1171      C1172   1.430       .  A
C1172      F1173   1.334   1_656  S
C1177      C1178   1.366   1_455  A
C1177      C1182   1.358       .  A
C1177      F1184   1.363       .  S
C1178      C1179   1.417       .  A
C1179      C1180   1.422       .  A
C1179      F1186   1.357       .  S
C1180      C1181   1.415       .  A
C1180      F1185   1.355       .  S
C1181      C1182   1.436   1_655  A
C1182      F1183   1.338       .  S
C1187      C1188   1.441       .  A
C1187      C1192   1.397   1_565  A
C1187      F1194   1.352   1_556  S
C1188      C1189   1.414       .  A
C1189      C1190   1.404   1_565  A
C1189      F1196   1.357       .  S
C1190      C1191   1.412       .  A
C1190      F1195   1.353       .  S
C1191      C1192   1.384       .  A
C1192      F1193   1.357   1_556  S
C1197      C1198   1.410       .  A
C1197      C1202   1.386       .  A
C1197      F1204   1.356       .  S
C1198      C1199   1.409       .  A
C1199      C1200   1.395       .  A
C1199      F1206   1.354       .  S
C1200      C1201   1.395       .  A
C1200      F1205   1.353       .  S
C1201      C1202   1.414       .  A
C1202      F1203   1.359       .  S
C1207      C1208   1.410       .  A
C1207      C1212   1.403       .  A
C1207      F1214   1.357       .  S
C1208      C1209   1.417       .  A
C1209      C1210   1.419       .  A
C1209      F1216   1.357   1_565  S
C1210      C1211   1.428       .  A
C1210      F1215   1.355       .  S
C1211      C1212   1.416       .  A
C1212      F1213   1.352       .  S
C1217      C1218   1.401   1_655  A
C1217      C1222   1.415       .  A
C1217      F1224   1.357       .  S
C1218      C1219   1.428       .  A
C1219      C1220   1.407       .  A
C1219      F1226   1.356       .  S
C1220      C1221   1.410   1_455  A
C1220      F1225   1.354       .  S
C1221      C1222   1.419       .  A
C1222      F1223   1.356       .  S
C1227      C1228   1.372       .  A
C1227      C1232   1.365       .  A
C1227      F1234   1.361       .  S
C1228      C1229   1.420   1_655  A
C1229      C1230   1.401       .  A
C1229      F1236   1.355       .  S
C1230      C1231   1.407       .  A
C1230      F1235   1.354       .  S
C1231      C1232   1.436   1_455  A
C1232      F1233   1.341       .  S
C1237      C1238   1.413       .  A
C1237      C1242   1.410       .  A
C1237      F1244   1.358       .  S
C1238      C1239   1.418       .  A
C1239      C1240   1.413       .  A
C1239      F1246   1.352   1_455  S
C1240      C1241   1.423       .  A
C1240      F1245   1.357       .  S
C1241      C1242   1.419       .  A
C1242      F1243   1.352       .  S
C1247      C1248   1.430       .  A
C1247      C1252   1.413   1_455  A
C1247      F1254   1.352   1_455  S
C1248      C1249   1.399       .  A
C1249      C1250   1.404       .  A
C1249      F1256   1.354       .  S
C1250      C1251   1.420   1_455  A
C1250      F1255   1.349       .  S
C1251      C1252   1.411       .  A
C1252      F1253   1.358       .  S
C1257      C1258   1.427       .  A
C1257      C1262   1.426       .  A
C1257      F1264   1.351   1_545  S
C1258      C1259   1.410       .  A
C1259      C1260   1.412       .  A
C1259      F1266   1.354       .  S
C1260      C1261   1.444       .  A
C1260      F1265   1.356       .  S
C1261      C1262   1.422       .  A
C1262      F1263   1.347       .  S
C1267      C1268   1.430       .  A
C1267      C1272   1.369       .  A
C1267      F1274   1.339       .  S
C1268      C1269   1.420       .  A
C1269      C1270   1.416       .  A
C1269      F1276   1.356       .  S
C1270      C1271   1.419       .  A
C1270      F1275   1.357       .  S
C1271      C1272   1.383       .  A
C1272      F1273   1.360       .  S
C1277      C1278   1.410       .  A
C1277      C1282   1.412       .  A
C1277      F1284   1.355       .  S
C1278      C1279   1.404   1_545  A
C1279      C1280   1.388       .  A
C1279      F1286   1.349       .  S
C1280      C1281   1.393   1_565  A
C1280      F1285   1.348       .  S
C1281      C1282   1.425       .  A
C1282      F1283   1.356       .  S
C1287      C1288   1.423       .  A
C1287      C1292   1.418       .  A
C1287      F1294   1.352       .  S
C1288      C1289   1.429       .  A
C1289      C1290   1.422       .  A
C1289      F1296   1.357       .  S
C1290      C1291   1.418       .  A
C1290      F1295   1.350       .  S
C1291      C1292   1.415       .  A
C1292      F1293   1.356       .  S
C1297      C1298   1.427       .  A
C1297      C1302   1.438       .  A
C1297      F1304   1.356       .  S
C1298      C1299   1.429       .  A
C1299      C1300   1.429       .  A
C1299      F1306   1.351       .  S
C1300      C1301   1.425       .  A
C1300      F1305   1.354       .  S
C1301      C1302   1.434       .  A
C1302      F1303   1.356       .  S
C1307      C1308   1.421       .  A
C1307      C1312   1.418       .  A
C1307      F1314   1.353       .  S
C1308      C1309   1.430       .  A
C1309      C1310   1.431       .  A
C1309      F1316   1.356       .  S
C1310      C1311   1.427       .  A
C1310      F1315   1.352       .  S
C1311      C1312   1.427       .  A
C1312      F1313   1.357       .  S
C1317      C1318   1.426       .  A
C1317      C1322   1.437       .  A
C1317      F1324   1.356       .  S
C1318      C1319   1.427       .  A
C1319      C1320   1.433       .  A
C1319      F1326   1.355       .  S
C1320      C1321   1.438       .  A
C1320      F1325   1.350       .  S
C1321      C1322   1.440       .  A
C1322      F1323   1.351       .  S
C1327      C1328   1.427       .  A
C1327      C1332   1.415       .  A
C1327      F1334   1.350       .  S
C1328      C1329   1.360       .  A
C1329      C1330   1.368       .  A
C1329      F1336   1.361       .  S
C1330      C1331   1.450       .  A
C1330      F1335   1.340       .  S
C1331      C1332   1.399       .  A
C1332      F1333   1.356       .  S
C1337      C1338   1.445       .  A
C1337      C1342   1.375       .  A
C1337      F1344   1.337       .  S
C1338      C1339   1.410       .  A
C1339      C1340   1.433       .  A
C1339      F1346   1.356       .  S
C1340      C1341   1.436       .  A
C1340      F1345   1.353       .  S
C1341      C1342   1.375       .  A
C1342      F1343   1.361       .  S
C1347      C1348   1.427       .  A
C1347      C1352   1.441       .  A
C1347      F1354   1.349       .  S
C1348      C1349   1.444       .  A
C1349      C1350   1.424       .  A
C1349      F1356   1.356       .  S
C1350      C1351   1.420       .  A
C1350      F1355   1.355       .  S
C1351      C1352   1.434       .  A
C1352      F1353   1.356       .  S
C1357      C1358   1.403       .  A
C1357      C1362   1.396       .  A
C1357      F1364   1.355       .  S
C1358      C1359   1.410       .  A
C1359      C1360   1.399       .  A
C1359      F1366   1.359   1_655  S
C1360      C1361   1.422       .  A
C1360      F1365   1.358       .  S
C1361      C1362   1.415       .  A
C1362      F1363   1.353       .  S
C1367      C1368   1.413       .  A
C1367      C1372   1.407       .  A
C1367      F1374   1.356       .  S
C1368      C1369   1.434       .  A
C1369      C1370   1.371       .  A
C1369      F1376   1.325   1_565  S
C1370      C1371   1.372       .  A
C1370      F1375   1.360   1_565  S
C1371      C1372   1.424       .  A
C1372      F1373   1.352       .  S
C1377      C1378   1.422       .  A
C1377      C1382   1.423       .  A
C1377      F1384   1.355       .  S
C1378      C1379   1.428       .  A
C1379      C1380   1.426       .  A
C1379      F1386   1.358       .  S
C1380      C1381   1.421       .  A
C1380      F1385   1.354       .  S
C1381      C1382   1.435       .  A
C1382      F1383   1.355       .  S
C1387      C1388   1.422       .  A
C1387      C1392   1.417       .  A
C1387      F1394   1.352       .  S
C1388      C1389   1.433       .  A
C1389      C1390   1.432       .  A
C1389      F1396   1.357       .  S
C1390      C1391   1.421       .  A
C1390      F1395   1.353       .  S
C1391      C1392   1.436       .  A
C1392      F1393   1.355       .  S
C1397      C1398   1.439       .  A
C1397      C1402   1.433       .  A
C1397      F1404   1.350       .  S
C1398      C1399   1.429       .  A
C1399      C1400   1.424       .  A
C1399      F1406   1.356       .  S
C1400      C1401   1.423       .  A
C1400      F1405   1.356       .  S
C1401      C1402   1.420       .  A
C1402      F1403   1.356       .  S
C1407      C1408   1.422       .  A
C1407      C1412   1.432       .  A
C1407      F1414   1.358       .  S
C1408      C1409   1.430       .  A
C1409      C1410   1.422       .  A
C1409      F1416   1.354       .  S
C1410      C1411   1.435       .  A
C1410      F1415   1.354       .  S
C1411      C1412   1.433       .  A
C1412      F1413   1.344       .  S
C1417      C1418   1.380       .  A
C1417      C1422   1.391       .  A
C1417      F1424   1.359       .  S
C1418      C1419   1.433       .  A
C1419      C1420   1.411       .  A
C1419      F1426   1.351       .  S
C1420      C1421   1.402       .  A
C1420      F1425   1.355       .  S
C1421      C1422   1.444       .  A
C1422      F1423   1.343       .  S
C1427      C1428   1.405       .  A
C1427      C1432   1.394       .  A
C1427      F1434   1.358       .  S
C1428      C1429   1.417       .  A
C1429      C1430   1.411       .  A
C1429      F1436   1.353       .  S
C1430      C1431   1.403   1_545  A
C1430      F1435   1.356       .  S
C1431      C1432   1.421   1_565  A
C1432      F1433   1.348   1_545  S
C1437      C1438   1.413       .  A
C1437      C1442   1.412       .  A
C1437      F1444   1.358       .  S
C1438      C1439   1.405       .  A
C1439      C1440   1.398       .  A
C1439      F1446   1.353       .  S
C1440      C1441   1.413       .  A
C1440      F1445   1.352       .  S
C1441      C1442   1.425       .  A
C1442      F1443   1.357       .  S
C1447      C1448   1.446       .  A
C1447      C1452   1.380       .  A
C1447      F1454   1.351       .  S
C1448      C1449   1.409       .  A
C1449      C1450   1.422       .  A
C1449      F1456   1.355       .  S
C1450      C1451   1.425       .  A
C1450      F1455   1.355       .  S
C1451      C1452   1.372       .  A
C1452      F1453   1.356       .  S
C1457      C1458   1.409       .  A
C1457      C1462   1.417       .  A
C1457      F1464   1.357   1_565  S
C1458      C1459   1.423       .  A
C1459      C1460   1.424       .  A
C1459      F1466   1.354       .  S
C1460      C1461   1.421       .  A
C1460      F1465   1.356       .  S
C1461      C1462   1.426       .  A
C1462      F1463   1.349   1_565  S
C1467      C1468   1.413       .  A
C1467      C1472   1.394       .  A
C1467      F1474   1.358       .  S
C1468      C1469   1.398       .  A
C1469      C1470   1.410       .  A
C1469      F1476   1.353       .  S
C1470      C1471   1.429       .  A
C1470      F1475   1.350       .  S
C1471      C1472   1.418       .  A
C1472      F1473   1.358       .  S
C1477      C1478   1.419       .  A
C1477      C1482   1.398       .  A
C1477      F1484   1.358       .  S
C1478      C1479   1.359       .  A
C1479      C1480   1.362       .  A
C1479      F1486   1.361       .  S
C1480      C1481   1.438       .  A
C1480      F1485   1.327       .  S
C1481      C1482   1.411       .  A
C1482      F1483   1.355       .  S
C1487      C1488   1.413       .  A
C1487      C1492   1.417       .  A
C1487      F1494   1.356       .  S
C1488      C1489   1.434       .  A
C1489      C1490   1.436       .  A
C1489      F1496   1.354       .  S
C1490      C1491   1.429       .  A
C1490      F1495   1.354       .  S
C1491      C1492   1.450       .  A
C1492      F1493   1.353       .  S
C1497      C1498   1.409       .  A
C1497      C1502   1.415       .  A
C1497      F1504   1.353       .  S
C1498      C1499   1.421       .  A
C1499      C1500   1.401       .  A
C1499      F1506   1.348       .  S
C1500      C1501   1.409       .  A
C1500      F1505   1.358       .  S
C1501      C1502   1.415       .  A
C1502      F1503   1.355       .  S
C1507      C1508   1.367       .  A
C1507      C1512   1.370       .  A
C1507      F1514   1.360       .  S
C1508      C1509   1.430       .  A
C1509      C1510   1.408       .  A
C1509      F1516   1.349       .  S
C1510      C1511   1.400       .  A
C1510      F1515   1.355       .  S
C1511      C1512   1.441       .  A
C1512      F1513   1.336       .  S
C1517      C1518   1.397       .  A
C1517      C1522   1.408       .  A
C1517      F1524   1.356       .  S
C1518      C1519   1.442       .  A
C1519      C1520   1.403       .  A
C1519      F1526   1.359       .  S
C1520      C1521   1.400       .  A
C1520      F1525   1.358       .  S
C1521      C1522   1.423       .  A
C1522      F1523   1.357       .  S
C1527      C1528   1.421       .  A
C1527      C1532   1.416       .  A
C1527      F1534   1.356       .  S
C1528      C1529   1.419       .  A
C1529      C1530   1.415       .  A
C1529      F1536   1.353       .  S
C1530      C1531   1.415       .  A
C1530      F1535   1.353       .  S
C1531      C1532   1.423       .  A
C1532      F1533   1.357       .  S
C1537      C1538   1.432       .  A
C1537      C1542   1.413       .  A
C1537      F1544   1.358       .  S
C1538      C1539   1.371       .  A
C1539      C1540   1.379       .  A
C1539      F1546   1.359       .  S
C1540      C1541   1.444       .  A
C1540      F1545   1.339       .  S
C1541      C1542   1.407       .  A
C1542      F1543   1.354       .  S
C1547      C1548   1.426       .  A
C1547      C1552   1.408       .  A
C1547      F1554   1.358       .  S
C1548      C1549   1.425       .  A
C1549      C1550   1.411       .  A
C1549      F1556   1.352       .  S
C1550      C1551   1.406       .  A
C1550      F1555   1.356       .  S
C1551      C1552   1.417       .  A
C1552      F1553   1.357       .  S
C1557      C1558   1.399       .  A
C1557      C1562   1.415       .  A
C1557      F1564   1.357       .  S
C1558      C1559   1.429       .  A
C1559      C1560   1.409       .  A
C1559      F1566   1.358       .  S
C1560      C1561   1.409       .  A
C1560      F1565   1.352       .  S
C1561      C1562   1.422       .  A
C1562      F1563   1.356       .  S
C1567      C1568   1.426       .  A
C1567      C1572   1.420       .  A
C1567      F1574   1.354       .  S
C1568      C1569   1.429       .  A
C1569      C1570   1.437       .  A
C1569      F1576   1.353       .  S
C1570      C1571   1.427       .  A
C1570      F1575   1.357       .  S
C1571      C1572   1.431       .  A
C1572      F1573   1.355       .  S
C1577      C1578   1.436       .  A
C1577      C1582   1.366       .  A
C1577      F1584   1.345       .  S
C1578      C1579   1.411       .  A
C1579      C1580   1.415       .  A
C1579      F1586   1.356       .  S
C1580      C1581   1.423       .  A
C1580      F1585   1.357       .  S
C1581      C1582   1.378       .  A
C1582      F1583   1.361       .  S
C1587      C1588   1.378       .  A
C1587      C1592   1.364       .  A
C1587      F1594   1.360   1_556  S
C1588      C1589   1.412       .  A
C1589      C1590   1.399       .  A
C1589      F1596   1.357       .  S
C1590      C1591   1.410       .  A
C1590      F1595   1.354       .  S
C1591      C1592   1.434       .  A
C1592      F1593   1.350   1_556  S
C1597      C1598   1.419       .  A
C1597      C1602   1.398       .  A
C1597      F1604   1.352       .  S
C1598      C1599   1.417       .  A
C1599      C1600   1.401       .  A
C1599      F1606   1.358       .  S
C1600      C1601   1.415       .  A
C1600      F1605   1.359       .  S
C1601      C1602   1.399       .  A
C1602      F1603   1.358   1_565  S
C1607      C1608   1.411       .  A
C1607      C1612   1.422       .  A
C1607      F1614   1.355       .  S
C1608      C1609   1.442       .  A
C1609      C1610   1.392   1_565  A
C1609      F1616   1.336   1_565  S
C1610      C1611   1.376   1_545  A
C1610      F1615   1.358       .  S
C1611      C1612   1.430       .  A
C1612      F1613   1.357       .  S
C1617      C1618   1.422       .  A
C1617      C1622   1.420       .  A
C1617      F1624   1.356       .  S
C1618      C1619   1.422       .  A
C1619      C1620   1.419       .  A
C1619      F1626   1.358       .  S
C1620      C1621   1.421       .  A
C1620      F1625   1.355       .  S
C1621      C1622   1.431       .  A
C1622      F1623   1.353       .  S
C1627      C1628   1.434       .  A
C1627      C1632   1.407       .  A
C1627      F1634   1.356       .  S
C1628      C1629   1.414       .  A
C1629      C1630   1.418       .  A
C1629      F1636   1.358       .  S
C1630      C1631   1.428       .  A
C1630      F1635   1.347       .  S
C1631      C1632   1.417       .  A
C1632      F1633   1.357       .  S
C1637      C1638   1.427       .  A
C1637      C1642   1.419       .  A
C1637      F1644   1.352       .  S
C1638      C1639   1.424       .  A
C1639      C1640   1.425       .  A
C1639      F1646   1.354       .  S
C1640      C1641   1.436       .  A
C1640      F1645   1.356       .  S
C1641      C1642   1.418       .  A
C1642      F1643   1.348       .  S
C1647      C1648   1.410       .  A
C1647      C1652   1.412       .  A
C1647      F1654   1.355       .  S
C1648      C1649   1.408       .  A
C1649      C1650   1.406       .  A
C1649      F1656   1.357       .  S
C1650      C1651   1.436       .  A
C1650      F1655   1.347       .  S
C1651      C1652   1.417       .  A
C1652      F1653   1.354       .  S
C1657      C1658   1.411       .  A
C1657      C1662   1.414       .  A
C1657      F1664   1.358       .  S
C1658      C1659   1.420       .  A
C1659      C1660   1.414       .  A
C1659      F1666   1.350       .  S
C1660      C1661   1.416       .  A
C1660      F1665   1.350       .  S
C1661      C1662   1.440       .  A
C1662      F1663   1.358       .  S
C1667      C1668   1.422       .  A
C1667      C1672   1.402       .  A
C1667      F1674   1.349       .  S
C1668      C1669   1.425       .  A
C1669      C1670   1.407       .  A
C1669      F1676   1.357       .  S
C1670      C1671   1.410       .  A
C1670      F1675   1.358       .  S
C1671      C1672   1.402       .  A
C1672      F1673   1.357       .  S
C1677      C1678   1.411       .  A
C1677      C1682   1.420       .  A
C1677      F1684   1.354       .  S
C1678      C1679   1.412       .  A
C1679      C1680   1.403       .  A
C1679      F1686   1.359       .  S
C1680      C1681   1.413       .  A
C1680      F1685   1.354       .  S
C1681      C1682   1.430       .  A
C1682      F1683   1.356       .  S
C1687      C1688   1.430       .  A
C1687      C1692   1.422       .  A
C1687      F1694   1.356       .  S
C1688      C1689   1.425       .  A
C1689      C1690   1.443       .  A
C1689      F1696   1.353       .  S
C1690      C1691   1.439       .  A
C1690      F1695   1.353       .  S
C1691      C1692   1.422       .  A
C1692      F1693   1.355       .  S
C1697      C1698   1.409       .  A
C1697      C1702   1.408       .  A
C1697      F1704   1.356   1_655  S
C1698      C1699   1.420       .  A
C1699      C1700   1.409       .  A
C1699      F1706   1.357       .  S
C1700      C1701   1.396       .  A
C1700      F1705   1.357       .  S
C1701      C1702   1.429       .  A
C1702      F1703   1.357   1_655  S
C1707      C1708   1.413       .  A
C1707      C1712   1.407       .  A
C1707      F1714   1.357       .  S
C1708      C1709   1.419       .  A
C1709      C1710   1.406       .  A
C1709      F1716   1.351       .  S
C1710      C1711   1.411       .  A
C1710      F1715   1.356       .  S
C1711      C1712   1.418       .  A
C1712      F1713   1.354       .  S
C1717      C1718   1.424       .  A
C1717      C1722   1.410       .  A
C1717      F1724   1.349       .  S
C1718      C1719   1.402       .  A
C1719      C1720   1.407       .  A
C1719      F1726   1.358       .  S
C1720      C1721   1.435       .  A
C1720      F1725   1.353       .  S
C1721      C1722   1.394       .  A
C1722      F1723   1.357       .  S
C1727      C1728   1.429       .  A
C1727      C1732   1.427       .  A
C1727      F1734   1.352       .  S
C1728      C1729   1.373       .  A
C1729      C1730   1.380       .  A
C1729      F1736   1.360       .  S
C1730      C1731   1.443       .  A
C1730      F1735   1.336       .  S
C1731      C1732   1.416       .  A
C1732      F1733   1.353       .  S
C1737      C1738   1.403       .  A
C1737      C1742   1.402       .  A
C1737      F1744   1.357       .  S
C1738      C1739   1.410       .  A
C1739      C1740   1.401       .  A
C1739      F1746   1.358       .  S
C1740      C1741   1.422       .  A
C1740      F1745   1.358       .  S
C1741      C1742   1.422       .  A
C1742      F1743   1.349       .  S
C1747      C1748   1.417       .  A
C1747      C1752   1.409       .  A
C1747      F1754   1.349       .  S
C1748      C1749   1.413       .  A
C1749      C1750   1.409       .  A
C1749      F1756   1.357       .  S
C1750      C1751   1.424       .  A
C1750      F1755   1.357       .  S
C1751      C1752   1.402       .  A
C1752      F1753   1.356       .  S
C1757      C1758   1.444       .  A
C1757      C1762   1.382       .  A
C1757      F1764   1.337   1_455  S
C1758      C1759   1.403       .  A
C1759      C1760   1.416       .  A
C1759      F1766   1.356       .  S
C1760      C1761   1.438       .  A
C1760      F1765   1.356       .  S
C1761      C1762   1.374       .  A
C1762      F1763   1.360       .  S
C1767      C1768   1.448       .  A
C1767      C1772   1.384       .  A
C1767      F1774   1.337       .  S
C1768      C1769   1.407       .  A
C1769      C1770   1.426       .  A
C1769      F1776   1.356       .  S
C1770      C1771   1.435       .  A
C1770      F1775   1.357       .  S
C1771      C1772   1.372       .  A
C1772      F1773   1.360       .  S
C1777      C1778   1.431       .  A
C1777      C1782   1.440       .  A
C1777      F1784   1.356       .  S
C1778      C1779   1.417       .  A
C1779      C1780   1.424       .  A
C1779      F1786   1.353       .  S
C1780      C1781   1.450       .  A
C1780      F1785   1.355       .  S
C1781      C1782   1.430       .  A
C1782      F1783   1.347       .  S
C1787      C1788   1.419       .  A
C1787      C1792   1.387       .  A
C1787      F1794   1.359       .  S
C1788      C1789   1.417       .  A
C1789      C1790   1.402       .  A
C1789      F1796   1.352       .  S
C1790      C1791   1.402       .  A
C1790      F1795   1.357       .  S
C1791      C1792   1.414       .  A
C1792      F1793   1.360       .  S
C1797      C1798   1.433       .  A
C1797      C1802   1.404       .  A
C1797      F1804   1.354       .  S
C1798      C1799   1.410       .  A
C1799      C1800   1.418       .  A
C1799      F1806   1.355       .  S
C1800      C1801   1.414       .  A
C1800      F1805   1.356       .  S
C1801      C1802   1.407       .  A
C1802      F1803   1.359       .  S
C1807      C1808   1.432       .  A
C1807      C1812   1.431       .  A
C1807      F1814   1.352       .  S
C1808      C1809   1.432       .  A
C1809      C1810   1.440       .  A
C1809      F1816   1.352       .  S
C1810      C1811   1.433       .  A
C1810      F1815   1.353       .  S
C1811      C1812   1.425       .  A
C1812      F1813   1.357       .  S
C1817      C1818   1.418       .  A
C1817      C1822   1.419       .  A
C1817      F1824   1.355       .  S
C1818      C1819   1.436       .  A
C1819      C1820   1.372       .  A
C1819      F1826   1.344       .  S
C1820      C1821   1.384       .  A
C1820      F1825   1.360       .  S
C1821      C1822   1.423       .  A
C1822      F1823   1.356       .  S
C1827      C1828   1.420       .  A
C1827      C1832   1.415       .  A
C1827      F1834   1.351       .  S
C1828      C1829   1.414       .  A
C1829      C1830   1.418       .  A
C1829      F1836   1.357       .  S
C1830      C1831   1.425       .  A
C1830      F1835   1.351       .  S
C1831      C1832   1.417       .  A
C1832      F1833   1.357       .  S
C1837      C1838   1.431       .  A
C1837      C1842   1.406       .  A
C1837      F1844   1.354       .  S
C1838      C1839   1.394       .  A
C1839      C1840   1.402       .  A
C1839      F1846   1.356       .  S
C1840      C1841   1.417       .  A
C1840      F1845   1.352       .  S
C1841      C1842   1.401       .  A
C1842      F1843   1.358       .  S
C1847      C1848   1.419       .  A
C1847      C1852   1.427       .  A
C1847      F1854   1.353       .  S
C1848      C1849   1.429       .  A
C1849      C1850   1.432       .  A
C1849      F1856   1.356       .  S
C1850      C1851   1.428       .  A
C1850      F1855   1.358       .  S
C1851      C1852   1.439       .  A
C1852      F1853   1.351       .  S
C1857      C1858   1.407   1_556  A
C1857      C1862   1.405   1_556  A
C1857      F1864   1.351       .  S
C1858      C1859   1.422       .  A
C1859      C1860   1.420       .  A
C1859      F1866   1.357       .  S
C1860      C1861   1.416       .  A
C1860      F1865   1.356       .  S
C1861      C1862   1.416       .  A
C1862      F1863   1.353   1_554  S
C1867      C1868   1.413       .  A
C1867      C1872   1.405       .  A
C1867      F1874   1.354       .  S
C1868      C1869   1.414       .  A
C1869      C1870   1.402       .  A
C1869      F1876   1.357       .  S
C1870      C1871   1.416       .  A
C1870      F1875   1.354       .  S
C1871      C1872   1.403       .  A
C1872      F1873   1.355       .  S
C1877      C1878   1.428       .  A
C1877      C1882   1.427       .  A
C1877      F1884   1.354       .  S
C1878      C1879   1.425       .  A
C1879      C1880   1.439       .  A
C1879      F1886   1.354       .  S
C1880      C1881   1.438       .  A
C1880      F1885   1.355       .  S
C1881      C1882   1.422       .  A
C1882      F1883   1.358       .  S
C1887      C1888   1.424       .  A
C1887      C1892   1.425       .  A
C1887      F1894   1.354       .  S
C1888      C1889   1.439   1_554  A
C1889      C1890   1.378       .  A
C1889      F1896   1.328       .  S
C1890      C1891   1.375   1_556  A
C1890      F1895   1.361       .  S
C1891      C1892   1.426       .  A
C1892      F1893   1.354       .  S
C1897      C1898   1.412   1_554  A
C1897      C1902   1.425       .  A
C1897      F1904   1.354       .  S
C1898      C1899   1.364       .  A
C1899      C1900   1.352       .  A
C1899      F1906   1.365   1_455  S
C1900      C1901   1.435   1_556  A
C1900      F1905   1.335   1_455  S
C1901      C1902   1.425       .  A
C1902      F1903   1.355       .  S
C1907      C1908   1.426       .  A
C1907      C1912   1.418       .  A
C1907      F1914   1.351       .  S
C1908      C1909   1.426       .  A
C1909      C1910   1.426       .  A
C1909      F1916   1.357       .  S
C1910      C1911   1.425       .  A
C1910      F1915   1.358       .  S
C1911      C1912   1.411       .  A
C1912      F1913   1.355   1_455  S
C1917      C1918   1.422       .  A
C1917      C1922   1.434       .  A
C1917      F1924   1.353       .  S
C1918      C1919   1.427       .  A
C1919      C1920   1.440       .  A
C1919      F1926   1.356       .  S
C1920      C1921   1.436       .  A
C1920      F1925   1.356       .  S
C1921      C1922   1.441       .  A
C1922      F1923   1.346       .  S
C1927      C1928   1.418       .  A
C1927      C1932   1.411       .  A
C1927      F1934   1.357   1_455  S
C1928      C1929   1.429       .  A
C1929      C1930   1.432       .  A
C1929      F1936   1.352       .  S
C1930      C1931   1.421       .  A
C1930      F1935   1.357       .  S
C1931      C1932   1.436       .  A
C1932      F1933   1.356       .  S
C1937      C1938   1.423   1_545  A
C1937      C1942   1.417       .  A
C1937      F1944   1.353       .  S
C1938      C1939   1.380       .  A
C1939      C1940   1.376       .  A
C1939      F1946   1.360       .  S
C1940      C1941   1.438       .  A
C1940      F1945   1.338       .  S
C1941      C1942   1.419   1_565  A
C1942      F1943   1.355       .  S
C1947      C1948   1.421       .  A
C1947      C1952   1.410       .  A
C1947      F1954   1.350       .  S
C1948      C1949   1.417   1_565  A
C1949      C1950   1.417       .  A
C1949      F1956   1.356       .  S
C1950      C1951   1.421   1_545  A
C1950      F1955   1.358       .  S
C1951      C1952   1.406       .  A
C1952      F1953   1.352       .  S
C1957      C1958   1.402       .  A
C1957      C1962   1.408       .  A
C1957      F1964   1.356       .  S
C1958      C1959   1.421       .  A
C1959      C1960   1.399       .  A
C1959      F1966   1.353       .  S
C1960      C1961   1.408       .  A
C1960      F1965   1.358       .  S
C1961      C1962   1.411       .  A
C1962      F1963   1.355       .  S
C1967      C1968   1.426       .  A
C1967      C1972   1.432       .  A
C1967      F1974   1.356       .  S
C1968      C1969   1.418       .  A
C1969      C1970   1.427       .  A
C1969      F1976   1.354       .  S
C1970      C1971   1.442       .  A
C1970      F1975   1.347       .  S
C1971      C1972   1.431       .  A
C1972      F1973   1.355       .  S
C1977      C1978   1.409       .  A
C1977      C1982   1.415       .  A
C1977      F1984   1.352       .  S
C1978      C1979   1.443       .  A
C1979      C1980   1.373       .  A
C1979      F1986   1.349   1_556  S
C1980      C1981   1.378       .  A
C1980      F1985   1.360   1_556  S
C1981      C1982   1.424       .  A
C1982      F1983   1.357       .  S
C1987      C1988   1.430       .  A
C1987      C1992   1.415       .  A
C1987      F1994   1.358   1_554  S
C1988      C1989   1.392       .  A
C1989      C1990   1.402       .  A
C1989      F1996   1.358       .  S
C1990      C1991   1.426       .  A
C1990      F1995   1.342       .  S
C1991      C1992   1.409       .  A
C1992      F1993   1.355       .  S
C1997      C1998   1.412       .  A
C1997      C2002   1.407       .  A
C1997      F2004   1.352       .  S
C1998      C1999   1.423       .  A
C1999      C2000   1.421       .  A
C1999      F2006   1.356       .  S
C2000      C2001   1.420       .  A
C2000      F2005   1.357       .  S
C2001      C2002   1.406       .  A
C2002      F2003   1.346   1_655  S
C2007      C2008   1.444   1_455  A
C2007      C2012   1.380       .  A
C2007      F2014   1.336       .  S
C2008      C2009   1.412       .  A
C2009      C2010   1.405       .  A
C2009      F2016   1.354       .  S
C2010      C2011   1.416       .  A
C2010      F2015   1.347       .  S
C2011      C2012   1.369   1_655  A
C2012      F2013   1.360       .  S
C2017      C2018   1.411       .  A
C2017      C2022   1.392       .  A
C2017      F2024   1.354       .  S
C2018      C2019   1.416       .  A
C2019      C2020   1.413       .  A
C2019      F2026   1.354       .  S
C2020      C2021   1.407       .  A
C2020      F2025   1.357       .  S
C2021      C2022   1.416       .  A
C2022      F2023   1.360       .  S
C2027      C2028   1.428       .  A
C2027      C2032   1.434       .  A
C2027      F2034   1.356       .  S
C2028      C2029   1.428       .  A
C2029      C2030   1.432       .  A
C2029      F2036   1.355       .  S
C2030      C2031   1.425       .  A
C2030      F2035   1.354       .  S
C2031      C2032   1.431       .  A
C2032      F2033   1.353       .  S
C2037      C2038   1.424       .  A
C2037      C2042   1.438       .  A
C2037      F2044   1.356       .  S
C2038      C2039   1.425       .  A
C2039      C2040   1.423       .  A
C2039      F2046   1.355       .  S
C2040      C2041   1.438       .  A
C2040      F2045   1.354       .  S
C2041      C2042   1.438       .  A
C2042      F2043   1.351       .  S
C2047      C2048   1.425       .  A
C2047      C2052   1.434       .  A
C2047      F2054   1.355       .  S
C2048      C2049   1.426       .  A
C2049      C2050   1.424       .  A
C2049      F2056   1.356       .  S
C2050      C2051   1.423       .  A
C2050      F2055   1.356       .  S
C2051      C2052   1.434       .  A
C2052      F2053   1.353       .  S
C2057      C2058   1.437       .  A
C2057      C2062   1.431       .  A
C2057      F2064   1.355       .  S
C2058      C2059   1.415       .  A
C2059      C2060   1.413       .  A
C2059      F2066   1.355       .  S
C2060      C2061   1.434       .  A
C2060      F2065   1.357       .  S
C2061      C2062   1.418       .  A
C2062      F2063   1.354       .  S
C2067      C2068   1.409   1_554  A
C2067      C2072   1.420       .  A
C2067      F2074   1.356       .  S
C2068      C2069   1.422       .  A
C2069      C2070   1.406       .  A
C2069      F2076   1.355       .  S
C2070      C2071   1.412       .  A
C2070      F2075   1.352       .  S
C2071      C2072   1.433   1_556  A
C2072      F2073   1.352       .  S
C2077      C2078   1.399       .  A
C2077      C2082   1.393       .  A
C2077      F2084   1.359       .  S
C2078      C2079   1.411       .  A
C2079      C2080   1.414       .  A
C2079      F2086   1.357   1_556  S
C2080      C2081   1.402       .  A
C2080      F2085   1.357       .  S
C2081      C2082   1.434       .  A
C2082      F2083   1.353       .  S
C2087      C2088   1.416       .  A
C2087      C2092   1.415       .  A
C2087      F2094   1.357   1_554  S
C2088      C2089   1.406       .  A
C2089      C2090   1.407       .  A
C2089      F2096   1.358       .  S
C2090      C2091   1.429   1_655  A
C2090      F2095   1.354   1_655  S
C2091      C2092   1.405   1_455  A
C2092      F2093   1.356       .  S
C2097      C2098   1.416       .  A
C2097      C2102   1.410       .  A
C2097      F2104   1.357       .  S
C2098      C2099   1.423       .  A
C2099      C2100   1.403       .  A
C2099      F2106   1.355       .  S
C2100      C2101   1.418       .  A
C2100      F2105   1.359       .  S
C2101      C2102   1.408       .  A
C2102      F2103   1.356       .  S
C2107      C2108   1.410       .  A
C2107      C2112   1.407       .  A
C2107      F2114   1.355       .  S
C2108      C2109   1.408       .  A
C2109      C2110   1.402       .  A
C2109      F2116   1.358   1_554  S
C2110      C2111   1.420       .  A
C2110      F2115   1.351       .  S
C2111      C2112   1.409       .  A
C2112      F2113   1.353       .  S
C2117      C2118   1.415       .  A
C2117      C2122   1.404       .  A
C2117      F2124   1.356       .  S
C2118      C2119   1.413       .  A
C2119      C2120   1.404       .  A
C2119      F2126   1.351       .  S
C2120      C2121   1.405       .  A
C2120      F2125   1.357       .  S
C2121      C2122   1.413       .  A
C2122      F2123   1.358   1_554  S
C2127      C2128   1.413       .  A
C2127      C2132   1.403       .  A
C2127      F2134   1.358       .  S
C2128      C2129   1.424       .  A
C2129      C2130   1.410       .  A
C2129      F2136   1.354       .  S
C2130      C2131   1.420       .  A
C2130      F2135   1.352       .  S
C2131      C2132   1.431       .  A
C2132      F2133   1.359       .  S
C2137      C2138   1.424       .  A
C2137      C2142   1.407       .  A
C2137      F2144   1.358       .  S
C2138      C2139   1.422       .  A
C2139      C2140   1.408       .  A
C2139      F2146   1.348       .  S
C2140      C2141   1.405       .  A
C2140      F2145   1.356       .  S
C2141      C2142   1.408       .  A
C2142      F2143   1.357       .  S
C2147      C2148   1.406       .  A
C2147      C2152   1.417       .  A
C2147      F2154   1.349       .  S
C2148      C2149   1.452       .  A
C2149      C2150   1.391       .  A
C2149      F2156   1.345       .  S
C2150      C2151   1.377       .  A
C2150      F2155   1.358       .  S
C2151      C2152   1.426       .  A
C2152      F2153   1.351       .  S
C2157      C2158   1.422       .  A
C2157      C2162   1.418       .  A
C2157      F2164   1.355       .  S
C2158      C2159   1.420       .  A
C2159      C2160   1.430       .  A
C2159      F2166   1.357       .  S
C2160      C2161   1.436       .  A
C2160      F2165   1.344       .  S
C2161      C2162   1.438       .  A
C2162      F2163   1.355       .  S
C2167      C2168   1.413       .  A
C2167      C2172   1.403       .  A
C2167      F2174   1.357       .  S
C2168      C2169   1.408       .  A
C2169      C2170   1.393       .  A
C2169      F2176   1.357       .  S
C2170      C2171   1.424       .  A
C2170      F2175   1.355       .  S
C2171      C2172   1.398       .  A
C2172      F2173   1.357       .  S
C2177      C2178   1.426       .  A
C2177      C2182   1.398       .  A
C2177      F2184   1.358       .  S
C2178      C2179   1.397       .  A
C2179      C2180   1.400       .  A
C2179      F2186   1.357       .  S
C2180      C2181   1.432       .  A
C2180      F2185   1.356       .  S
C2181      C2182   1.393       .  A
C2182      F2183   1.356       .  S
C2187      C2188   1.416       .  A
C2187      C2192   1.402       .  A
C2187      F2194   1.357       .  S
C2188      C2189   1.400       .  A
C2189      C2190   1.398       .  A
C2189      F2196   1.355       .  S
C2190      C2191   1.430       .  A
C2190      F2195   1.347       .  S
C2191      C2192   1.398       .  A
C2192      F2193   1.356       .  S
C2197      C2198   1.400       .  A
C2197      C2202   1.403       .  A
C2197      F2204   1.354       .  S
C2198      C2199   1.371       .  A
C2199      C2200   1.363       .  A
C2199      F2206   1.362       .  S
C2200      C2201   1.428       .  A
C2200      F2205   1.340   1_556  S
C2201      C2202   1.421       .  A
C2202      F2203   1.355       .  S
C2207      C2208   1.409   1_545  A
C2207      C2212   1.415       .  A
C2207      F2214   1.357   1_545  S
C2208      C2209   1.421   1_565  A
C2209      C2210   1.389       .  A
C2209      F2216   1.351       .  S
C2210      C2211   1.405       .  A
C2210      F2215   1.354       .  S
C2211      C2212   1.408       .  A
C2212      F2213   1.356       .  S
C2217      C2218   1.419       .  A
C2217      C2222   1.409       .  A
C2217      F2224   1.353       .  S
C2218      C2219   1.421       .  A
C2219      C2220   1.415       .  A
C2219      F2226   1.354       .  S
C2220      C2221   1.409       .  A
C2220      F2225   1.353       .  S
C2221      C2222   1.419       .  A
C2222      F2223   1.353       .  S
C2227      C2228   1.426       .  A
C2227      C2232   1.434       .  A
C2227      F2234   1.356       .  S
C2228      C2229   1.424       .  A
C2229      C2230   1.413       .  A
C2229      F2236   1.352       .  S
C2230      C2231   1.424       .  A
C2230      F2235   1.359       .  S
C2231      C2232   1.432       .  A
C2232      F2233   1.352       .  S
C2237      C2238   1.401       .  A
C2237      C2242   1.413       .  A
C2237      F2244   1.354       .  S
C2238      C2239   1.428       .  A
C2239      C2240   1.422       .  A
C2239      F2246   1.357       .  S
C2240      C2241   1.422       .  A
C2240      F2245   1.356       .  S
C2241      C2242   1.422       .  A
C2242      F2243   1.348       .  S
C2247      C2248   1.419       .  A
C2247      C2252   1.410       .  A
C2247      F2254   1.356       .  S
C2248      C2249   1.416       .  A
C2249      C2250   1.354       .  A
C2249      F2256   1.340       .  S
C2250      C2251   1.375       .  A
C2250      F2255   1.357       .  S
C2251      C2252   1.412       .  A
C2252      F2253   1.357       .  S
C2257      C2258   1.422       .  A
C2257      C2262   1.393       .  A
C2257      F2264   1.356   1_455  S
C2258      C2259   1.401       .  A
C2259      C2260   1.408       .  A
C2259      F2266   1.358       .  S
C2260      C2261   1.410       .  A
C2260      F2265   1.357   1_545  S
C2261      C2262   1.408       .  A
C2262      F2263   1.358   1_455  S
C2267      C2268   1.409       .  A
C2267      C2272   1.420       .  A
C2267      F2274   1.356       .  S
C2268      C2269   1.440   1_545  A
C2269      C2270   1.393       .  A
C2269      F2276   1.347       .  S
C2270      C2271   1.388       .  A
C2270      F2275   1.359       .  S
C2271      C2272   1.429   1_565  A
C2272      F2273   1.355       .  S
C2277      C2278   1.413       .  A
C2277      C2282   1.397   1_455  A
C2277      F2284   1.358   1_455  S
C2278      C2279   1.425       .  A
C2279      C2280   1.406       .  A
C2279      F2286   1.351       .  S
C2280      C2281   1.401   1_455  A
C2280      F2285   1.355       .  S
C2281      C2282   1.420       .  A
C2282      F2283   1.360       .  S
C2287      C2288   1.418       .  A
C2287      C2292   1.416       .  A
C2287      F2294   1.351       .  S
C2288      C2289   1.435       .  A
C2289      C2290   1.427       .  A
C2289      F2296   1.355   1_545  S
C2290      C2291   1.420       .  A
C2290      F2295   1.355       .  S
C2291      C2292   1.426       .  A
C2292      F2293   1.358       .  S
C2297      C2298   1.439       .  A
C2297      C2302   1.371       .  A
C2297      F2304   1.342       .  S
C2298      C2299   1.403       .  A
C2299      C2300   1.404       .  A
C2299      F2306   1.356       .  S
C2300      C2301   1.427       .  A
C2300      F2305   1.351       .  S
C2301      C2302   1.376       .  A
C2302      F2303   1.360       .  S
C2307      C2308   1.418       .  A
C2307      C2312   1.410       .  A
C2307      F2314   1.354       .  S
C2308      C2309   1.438       .  A
C2309      C2310   1.402       .  A
C2309      F2316   1.356       .  S
C2310      C2311   1.413       .  A
C2310      F2315   1.359       .  S
C2311      C2312   1.404       .  A
C2312      F2313   1.353       .  S
C2317      C2318   1.425       .  A
C2317      C2322   1.408       .  A
C2317      F2324   1.359       .  S
C2318      C2319   1.404       .  A
C2319      C2320   1.415       .  A
C2319      F2326   1.356       .  S
C2320      C2321   1.418       .  A
C2320      F2325   1.357       .  S
C2321      C2322   1.410       .  A
C2322      F2323   1.348       .  S
C2327      C2328   1.425       .  A
C2327      C2332   1.430       .  A
C2327      F2334   1.356       .  S
C2328      C2329   1.417       .  A
C2329      C2330   1.421       .  A
C2329      F2336   1.358       .  S
C2330      C2331   1.431       .  A
C2330      F2335   1.346       .  S
C2331      C2332   1.433       .  A
C2332      F2333   1.355       .  S
C2337      C2338   1.415       .  A
C2337      C2342   1.401       .  A
C2337      F2344   1.357       .  S
C2338      C2339   1.422   1_544  A
C2339      C2340   1.364   1_565  A
C2339      F2346   1.347       .  S
C2340      C2341   1.381       .  A
C2340      F2345   1.361   1_545  S
C2341      C2342   1.409   1_556  A
C2342      F2343   1.358       .  S
C2347      C2348   1.423       .  A
C2347      C2352   1.407       .  A
C2347      F2354   1.349       .  S
C2348      C2349   1.411   1_545  A
C2349      C2350   1.413       .  A
C2349      F2356   1.356       .  S
C2350      C2351   1.413       .  A
C2350      F2355   1.356       .  S
C2351      C2352   1.415   1_565  A
C2352      F2353   1.355       .  S
C2357      C2358   1.415   1_556  A
C2357      C2362   1.414   1_556  A
C2357      F2364   1.349       .  S
C2358      C2359   1.421       .  A
C2359      C2360   1.425       .  A
C2359      F2366   1.357       .  S
C2360      C2361   1.429       .  A
C2360      F2365   1.355       .  S
C2361      C2362   1.414       .  A
C2362      F2363   1.351   1_554  S
C2367      C2368   1.437       .  A
C2367      C2372   1.420       .  A
C2367      F2374   1.352       .  S
C2368      C2369   1.417       .  A
C2369      C2370   1.428       .  A
C2369      F2376   1.357   1_545  S
C2370      C2371   1.436       .  A
C2370      F2375   1.355       .  S
C2371      C2372   1.417       .  A
C2372      F2373   1.358       .  S
