geometry optimzed in LAMMPS
_audit_creation_date              2020-12-01 
_audit_creation_method            'lammps2cif' 
_symmetry_space_group_name_H-M    'P1' 
_symmetry_Int_Tables_number       1 
_symmetry_cell_setting            triclinic 
loop_ 
_symmetry_equiv_pos_as_xyz 
  x,y,z 
_cell_length_a                    55.06659722 
_cell_length_b                    55.60765131320003 
_cell_length_c                    27.22260334931087 
_cell_angle_alpha                 89.75687775080013 
_cell_angle_beta                  90.26534474134772 
_cell_angle_gamma                 119.81104656578721 
loop_ 
_atom_site_label 
_atom_site_type_symbol 
_atom_site_fract_x 
_atom_site_fract_y 
_atom_site_fract_z 
_atom_site_charge 
C1          C  0.21731937  0.48131209  0.02879140     0.03500
C2          C  0.24395569  0.48318304  0.03067151     0.03500
C3          C  0.26461778  0.50025612  0.99684869    -0.17000
C4          C  0.25918143  0.01536130  0.96143086     0.03500
C5          C  0.23241454  0.01309091  0.95916714     0.03500
C6          C  0.21185858  0.99637242  0.99324827    -0.17000
H7          H  0.19149219  0.99491937  0.99184975     0.05600
H8          H  0.28501190  0.50177911  0.99818865     0.05600
O9          O  0.24499105  0.34764932  0.28961654    -0.73200
O10         O  0.23865073  0.39682223  0.19885717    -0.73200
O11         O  0.24388555  0.35082662  0.19017497    -0.73200
O12         O  0.24100598  0.39426400  0.29813502    -0.73300
O13         O  0.28729008  0.42061277  0.29530423    -0.73200
O14         O  0.29042457  0.37677358  0.18974679    -0.73200
O15         O  0.28501268  0.42304524  0.19532859    -0.73200
O16         O  0.29148876  0.37421479  0.28943690    -0.73200
Ni17       Ni  0.24051034  0.37150731  0.24420631     1.25400
Ni18       Ni  0.29020994  0.39964571  0.24228545     1.25400
C19         C  0.26911241  0.35284694  0.30483596     0.89000
C20         C  0.26048824  0.41775572  0.18143891     0.88900
C21         C  0.26783198  0.35630212  0.17313906     0.89000
C22         C  0.26383934  0.41466637  0.31476788     0.89100
O23         O  0.20612464  0.08366553  0.78996921    -0.73200
O24         O  0.21856073  0.14023434  0.69569456    -0.73200
O25         O  0.21070550  0.08782423  0.69042470    -0.73200
O26         O  0.21458203  0.13580908  0.79571924    -0.73300
O27         O  0.26069823  0.15383101  0.79865797    -0.73200
O28         O  0.25657873  0.10398311  0.69821973    -0.73200
O29         O  0.26457272  0.15623250  0.69899143    -0.73200
O30         O  0.25232157  0.10162497  0.79749559    -0.73200
Ni31       Ni  0.21084330  0.11133979  0.74258013     1.25400
Ni32       Ni  0.26016205  0.12954490  0.74846080     1.25400
C33         C  0.22725277  0.08373297  0.80986743     0.89000
C34         C  0.24348765  0.15727437  0.68138486     0.88900
C35         C  0.23303204  0.08753832  0.67801561     0.89000
C36         C  0.23834785  0.15248344  0.81536117     0.89100
O37         O  0.39289457  0.15390676  0.70335930    -0.73200
O38         O  0.34018243  0.10593120  0.79881389    -0.73200
O39         O  0.39146152  0.15217476  0.80287074    -0.73200
O40         O  0.34209952  0.10735554  0.69928494    -0.73300
O41         O  0.36276133  0.08181334  0.69987497    -0.73200
O42         O  0.41196560  0.12620650  0.80252924    -0.73200
O43         O  0.36050841  0.07990048  0.79975196    -0.73200
O44         O  0.41317725  0.12798569  0.70249490    -0.73200
Ni45       Ni  0.36593455  0.13075548  0.75115143     1.25400
Ni46       Ni  0.38781009  0.10304029  0.75131515     1.25400
C47         C  0.41139971  0.14874199  0.68609434     0.89000
C48         C  0.34158347  0.08507214  0.81530562     0.88900
C49         C  0.40997870  0.14659560  0.81930472     0.89000
C50         C  0.34456003  0.08726750  0.68182316     0.89100
O51         O  0.12228219  0.41325862  0.19936812    -0.73200
O52         O  0.08005401  0.36422449  0.30455747    -0.73200
O53         O  0.12671523  0.41418775  0.29863078    -0.73200
O54         O  0.07496689  0.36295106  0.20543647    -0.73300
O55         O  0.10005043  0.34145925  0.20208229    -0.73200
O56         O  0.15321101  0.39430546  0.29218181    -0.73200
O57         O  0.10654516  0.34430675  0.30062749    -0.73200
O58         O  0.14711035  0.39162753  0.19311096    -0.73200
Ni59       Ni  0.10007943  0.38940778  0.25206134     1.25400
Ni60       Ni  0.12766270  0.36720555  0.24670979     1.25400
C61         C  0.14167778  0.41045389  0.17902279     0.89000
C62         C  0.08665663  0.34646478  0.32034288     0.88900
C63         C  0.14823696  0.41247349  0.31103571     0.89000
C64         C  0.07877736  0.34353295  0.18911383     0.89100
C65         C  0.48266459  0.22334634  0.96689128     0.03500
C66         C  0.47817561  0.24597364  0.97362145     0.03500
C67         C  0.99117655  0.26429117  0.01258853    -0.17000
C68         C  0.01029122  0.26187097  0.04355938     0.03500
C69         C  0.01596003  0.23976655  0.03546341     0.03500
C70         C  0.00182292  0.22071633  0.99733416    -0.17000
H71         H  0.00577652  0.20373041  0.99116181     0.05600
H72         H  0.98673166  0.28100944  0.01812214     0.05600
C73         C  0.49496719  0.25568973  0.54959365     0.03500
C74         C  0.48887052  0.22777493  0.54290162     0.03500
C75         C  0.50194953  0.22149956  0.50460054    -0.17000
C76         C  0.02026111  0.24203710  0.47194581     0.03500
C77         C  0.02556070  0.26946445  0.47755691     0.03500
C78         C  0.51370666  0.27615859  0.51699274    -0.17000
H79         H  0.51845952  0.29742603  0.52126772     0.05600
H80         H  0.49750302  0.20036575  0.49965065     0.05600
O81         O  0.13402333  0.21238299  0.30556498    -0.73200
O82         O  0.08733761  0.21107886  0.19895256    -0.73200
O83         O  0.13730462  0.21264986  0.20592298    -0.73200
O84         O  0.08373530  0.20977314  0.29924105    -0.73300
O85         O  0.10656256  0.25596016  0.30259573    -0.73200
O86         O  0.15754810  0.25874207  0.20326829    -0.73200
O87         O  0.10744623  0.25692130  0.20276682    -0.73200
O88         O  0.15678492  0.25841618  0.30262746    -0.73200
Ni89       Ni  0.10976824  0.20978761  0.25232308     1.25400
Ni90       Ni  0.13281027  0.25912596  0.25279724     1.25400
C91         C  0.15332156  0.23586409  0.32162831     0.89000
C92         C  0.08966909  0.23393531  0.18316266     0.88900
C93         C  0.15603528  0.23608566  0.18891886     0.89000
C94         C  0.08689263  0.23234683  0.31745890     0.89100
O95         O  0.39523778  0.24202893  0.80359898    -0.73200
O96         O  0.35522592  0.24720431  0.69321312    -0.73200
O97         O  0.40288235  0.24491444  0.70530883    -0.73200
O98         O  0.34794075  0.24477022  0.79230365    -0.73300
O99         O  0.37324116  0.29087567  0.79746892    -0.73200
O100        O  0.42703043  0.29113804  0.70815670    -0.73200
O101        O  0.37924210  0.29336074  0.69793121    -0.73200
O102        O  0.42053088  0.28814169  0.80713260    -0.73200
Ni103      Ni  0.37438893  0.24309388  0.74838879     1.25400
Ni104      Ni  0.40085872  0.29253905  0.75274877     1.25400
C105        C  0.41456907  0.26415577  0.82337425     0.89000
C106        C  0.36064236  0.27103348  0.67726862     0.88900
C107        C  0.42393600  0.26811255  0.69239019     0.89000
C108        C  0.35213474  0.26779278  0.81039596     0.89100
C109        C  0.26143561  0.27268827  0.03835898     0.03500
C110        C  0.23777717  0.24603528  0.04425152     0.03500
C111        C  0.23366166  0.22460778  0.01211143    -0.17000
C112        C  0.25213322  0.22940355  0.97291142     0.03500
C113        C  0.27562129  0.25636913  0.96643749     0.03500
C114        C  0.27998947  0.27753534  0.99952661    -0.17000
H115        H  0.29775526  0.29815888  0.99448474     0.05600
H116        H  0.21546791  0.20423342  0.01681586     0.05600
C117        C  0.23950268  0.25147209  0.46155402     0.03500
C118        C  0.26599601  0.27569657  0.45363952     0.03500
C119        C  0.28843742  0.28052213  0.48482903    -0.17000
C120        C  0.28497398  0.26212107  0.52318978     0.03500
C121        C  0.25887921  0.23778046  0.52986234     0.03500
C122        C  0.23642642  0.23298414  0.49948341    -0.17000
H123        H  0.21622996  0.21468341  0.50568118     0.05600
H124        H  0.30869367  0.29888797  0.47965687     0.05600
C125        C  0.25112649  0.48387143  0.46180113     0.03500
C126        C  0.22522714  0.48366567  0.46014692     0.03500
C127        C  0.22006113  0.99934322  0.49548272    -0.17000
C128        C  0.24022233  0.01590038  0.53065374     0.03500
C129        C  0.26714183  0.01815171  0.52869650     0.03500
C130        C  0.27207271  0.00209719  0.49477420    -0.17000
H131        H  0.29183910  0.50256737  0.49520596     0.05600
H132        H  0.19989676  0.99825585  0.49547736     0.05600
C133        C  0.33323197  0.26762220  0.84923145    -0.04100
C134        C  0.30573371  0.26152545  0.83799347    -0.01200
C135        C  0.28767792  0.26029337  0.87586982     0.03800
C136        C  0.29618825  0.26276351  0.92561454    -0.04100
C137        C  0.32428500  0.27046066  0.93643836    -0.01200
C138        C  0.34285705  0.27350474  0.89826626     0.03800
C139        C  0.29624132  0.25712017  0.78737462     0.38400
C140        C  0.33402247  0.27458572  0.98697798     0.38400
C141        C  0.37189263  0.28249355  0.90967234     0.36900
C142        C  0.26093369  0.25788105  0.86347640     0.36900
N143        N  0.39509907  0.29006282  0.91908621    -0.38000
N144        N  0.23983222  0.25643485  0.85320361    -0.38000
N145        N  0.34180791  0.27785708  0.02726504    -0.37400
N146        N  0.28864052  0.25361234  0.74698297    -0.37400
C147        C  0.30837860  0.26902196  0.55799591    -0.04100
C148        C  0.31189972  0.28546910  0.59967833    -0.01200
C149        C  0.33058316  0.28775905  0.63732760     0.03800
C150        C  0.34472541  0.27247214  0.63446443    -0.04100
C151        C  0.34255383  0.25753264  0.59118016    -0.01200
C152        C  0.32544386  0.25701055  0.55213142     0.03800
C153        C  0.29593895  0.29963262  0.60444015     0.38400
C154        C  0.35789658  0.24269765  0.58657809     0.38400
C155        C  0.32611258  0.24500750  0.50536510     0.36900
C156        C  0.33415486  0.30478127  0.67999459     0.36900
N157        N  0.32729656  0.23602201  0.46776205    -0.38000
N158        N  0.33711552  0.31846170  0.71392156    -0.38000
N159        N  0.37000485  0.23074650  0.58270963    -0.37400
N160        N  0.28333188  0.31103200  0.60904825    -0.37400
C161        C  0.21557807  0.24107959  0.08068189    -0.04100
C162        C  0.21654565  0.23221741  0.12891318    -0.01200
C163        C  0.19726680  0.23079567  0.16453752     0.03800
C164        C  0.17607052  0.23696034  0.15154603    -0.04100
C165        C  0.17363475  0.24330864  0.10218124    -0.01200
C166        C  0.19347723  0.24570248  0.06706843     0.03800
C167        C  0.23664229  0.22353586  0.14142850     0.38400
C168        C  0.14985202  0.24586205  0.08657984     0.38400
C169        C  0.19062244  0.25219770  0.01648539     0.36900
C170        C  0.19974498  0.22353369  0.21469985     0.36900
N171        N  0.18795699  0.25725899  0.97623252    -0.38000
N172        N  0.20244180  0.21802733  0.25459908    -0.38000
N173        N  0.13076753  0.24731353  0.07260591    -0.37400
N174        N  0.25223738  0.21604882  0.15156340    -0.37400
C175        C  0.17229687  0.23750905  0.36252687    -0.04100
C176        C  0.18422528  0.26083848  0.39435500    -0.01200
C177        C  0.20410129  0.26376627  0.42997175     0.03800
C178        C  0.21440207  0.24512708  0.43112505    -0.04100
C179        C  0.20097598  0.22068217  0.40260143    -0.01200
C180        C  0.17934964  0.21643703  0.36966747     0.03800
C181        C  0.17558750  0.28161557  0.39202471     0.38400
C182        C  0.21004843  0.20026141  0.40559339     0.38400
C183        C  0.16506452  0.19057086  0.34265966     0.36900
C184        C  0.21317313  0.28537304  0.46678238     0.36900
N185        N  0.15369318  0.16983344  0.32143388    -0.38000
N186        N  0.21994204  0.30235164  0.49650898    -0.38000
N187        N  0.21721424  0.18393142  0.40771289    -0.37400
N188        N  0.16869566  0.29816429  0.39033428    -0.37400
C189        C  0.03501813  0.23506640  0.43330739    -0.04100
C190        C  0.06057169  0.23614926  0.44462017    -0.01200
C191        C  0.07685319  0.23391476  0.40692347     0.03800
C192        C  0.06804529  0.23121327  0.35747306    -0.04100
C193        C  0.04112898  0.22707916  0.34685258    -0.01200
C194        C  0.02445334  0.22854073  0.38485981     0.03800
C195        C  0.06989570  0.23904862  0.49526353     0.38400
C196        C  0.03044754  0.22085683  0.29701936     0.38400
C197        C  0.49597283  0.22190490  0.37461758     0.36900
C198        C  0.10181362  0.23275128  0.41958400     0.36900
N199        N  0.47301791  0.21586642  0.36621553    -0.38000
N200        N  0.12111627  0.23097593  0.43098551    -0.38000
N201        N  0.02182963  0.21575608  0.25729760    -0.37400
N202        N  0.07743414  0.24127250  0.53559796    -0.37400
C203        C  0.48046228  0.26345572  0.58821578    -0.04100
C204        C  0.46389000  0.27550633  0.57466055    -0.01200
C205        C  0.44645564  0.27819652  0.60946519     0.03800
C206        C  0.44477669  0.26832283  0.65772252    -0.04100
C207        C  0.46317239  0.25892720  0.67269311    -0.01200
C208        C  0.48162300  0.25738751  0.63850793     0.03800
C209        C  0.46406223  0.28485606  0.52486711     0.38400
C210        C  0.46367095  0.25178097  0.72376470     0.38400
C211        C  0.50265967  0.25088399  0.65560616     0.36900
C212        C  0.42988869  0.29085683  0.59537922     0.36900
N213        N  0.01963359  0.24609196  0.66989255    -0.38000
N214        N  0.41692377  0.30121210  0.58418953    -0.38000
N215        N  0.46397493  0.24637579  0.76474688    -0.37400
N216        N  0.46398120  0.29299888  0.48574373    -0.37400
C217        C  0.03631221  0.23608441  0.06698101    -0.04100
C218        C  0.02736552  0.21186441  0.09569690    -0.01200
C219        C  0.04498325  0.21075745  0.13243359     0.03800
C220        C  0.07174196  0.23408176  0.14154534    -0.04100
C221        C  0.08123496  0.25765801  0.11029762    -0.01200
C222        C  0.06416274  0.25783131  0.07168274     0.03800
C223        C  0.99954809  0.18822911  0.08919600     0.38400
C224        C  0.10851574  0.28210400  0.11727304     0.38400
C225        C  0.07548997  0.28022025  0.03595427     0.36900
C226        C  0.03451875  0.18593266  0.16244090     0.36900
N227        N  0.08474594  0.29796444  0.00729074    -0.38000
N228        N  0.02600452  0.16606081  0.18617158    -0.38000
N229        N  0.13018205  0.30171921  0.12261400    -0.37400
N230        N  0.97757246  0.16897738  0.08463117    -0.37400
C231        C  0.46163967  0.25224535  0.93781327    -0.04100
C232        C  0.47559462  0.27217723  0.90062370    -0.01200
C233        C  0.46017673  0.27745744  0.86512701     0.03800
C234        C  0.43064881  0.26168382  0.86493298    -0.04100
C235        C  0.41668137  0.24248642  0.90331186    -0.01200
C236        C  0.43221125  0.23850030  0.94051836     0.03800
C237        C  0.00588080  0.28666737  0.89754908     0.38400
C238        C  0.38632157  0.22733687  0.90542678     0.38400
C239        C  0.41791635  0.22100893  0.98234666     0.36900
C240        C  0.47490097  0.29832391  0.82759349     0.36900
N241        N  0.40618959  0.20739156  0.01591424    -0.38000
N242        N  0.48664719  0.31499127  0.79775349    -0.38000
N243        N  0.36212372  0.21527568  0.90725877    -0.37400
N244        N  0.02999002  0.29812210  0.89374692    -0.37400
C245        C  0.16726726  0.43151880  0.34876784    -0.04100
C246        C  0.19466888  0.45191557  0.33622355    -0.01200
C247        C  0.21171054  0.47160269  0.37137057     0.03800
C248        C  0.20384904  0.46767457  0.42143467    -0.04100
C249        C  0.17630936  0.44703423  0.43412861    -0.01200
C250        C  0.15768633  0.42992637  0.39733693     0.03800
C251        C  0.20572093  0.45230203  0.28777077     0.38400
C252        C  0.16718525  0.44272613  0.48490748     0.38400
C253        C  0.12895119  0.40998031  0.40987456     0.36900
C254        C  0.23646546  0.49667154  0.35543399     0.36900
N255        N  0.10598619  0.39429774  0.41993291    -0.38000
N256        N  0.25573561  0.51690765  0.34199752    -0.38000
N257        N  0.15982459  0.43925286  0.52537401    -0.37400
N258        N  0.21494876  0.45234926  0.24962832    -0.37400
C259        C  0.05846084  0.32324142  0.15404251    -0.04100
C260        C  0.04201348  0.29514562  0.16738244    -0.01200
C261        C  0.02395014  0.27559415  0.13262761     0.03800
C262        C  0.02480911  0.28341127  0.08279986    -0.04100
C263        C  0.04020069  0.31205508  0.07054046    -0.01200
C264        C  0.05581780  0.33188617  0.10671876     0.03800
C265        C  0.04322971  0.28660559  0.21728706     0.38400
C266        C  0.04104140  0.32165028  0.02071471     0.38400
C267        C  0.06942776  0.36125120  0.09505175     0.36900
C268        C  0.00362778  0.24792092  0.14874474     0.36900
N269        N  0.07991102  0.38463821  0.08583076    -0.38000
N270        N  0.98719617  0.22602915  0.16221140    -0.38000
N271        N  0.04229022  0.33048112  0.98170053    -0.37400
N272        N  0.04447233  0.28012395  0.25723876    -0.37400
C273        C  0.07108219  0.32803055  0.36213030    -0.04100
C274        C  0.08572389  0.32438246  0.40171990    -0.01200
C275        C  0.07086858  0.30648883  0.44097162     0.03800
C276        C  0.04140036  0.29091956  0.43956468    -0.04100
C277        C  0.02676818  0.29509369  0.40077322    -0.01200
C278        C  0.04150955  0.31385019  0.36257365     0.03800
C279        C  0.11610726  0.33954033  0.40282513     0.38400
C280        C  0.99642814  0.27978365  0.39963858     0.38400
C281        C  0.02608297  0.31764654  0.32277662     0.36900
C282        C  0.08589562  0.30490947  0.48357323     0.36900
N283        N  0.01374083  0.32065523  0.29110721    -0.38000
N284        N  0.09815160  0.30425362  0.51771449    -0.38000
N285        N  0.97222782  0.26756214  0.39799026    -0.37400
N286        N  0.14032968  0.35158667  0.40363750    -0.37400
C287        C  0.32645278  0.07012414  0.63984676    -0.04100
C288        C  0.31448752  0.08103774  0.60636865    -0.01200
C289        C  0.29849624  0.06515823  0.56602456     0.03800
C290        C  0.29036269  0.03683774  0.56273216    -0.04100
C291        C  0.30281095  0.02597794  0.59477822    -0.01200
C292        C  0.32163046  0.04280331  0.63161935     0.03800
C293        C  0.31756865  0.10823128  0.61332841     0.38400
C294        C  0.29485011  0.49662480  0.59249598     0.38400
C295        C  0.33547637  0.03127339  0.66095585     0.36900
C296        C  0.29063727  0.07810579  0.52744400     0.36900
N297        N  0.34678418  0.02191926  0.68315733    -0.38000
N298        N  0.28475449  0.08865802  0.49654069    -0.38000
N299        N  0.28881442  0.47352184  0.59050263    -0.37400
N300        N  0.31898952  0.12950124  0.61890954    -0.37400
C301        C  0.43068718  0.16702554  0.64622200    -0.04100
C302        C  0.45775736  0.17023896  0.63990970    -0.01200
C303        C  0.47651309  0.18936701  0.60514377     0.03800
C304        C  0.46815220  0.20465213  0.57474102    -0.04100
C305        C  0.44019447  0.19881888  0.57652615    -0.01200
C306        C  0.42210089  0.18147983  0.61358742     0.03800
C307        C  0.46717800  0.15500052  0.67047440     0.38400
C308        C  0.42977399  0.21018527  0.53922294     0.38400
C309        C  0.39485588  0.17929580  0.61784372     0.36900
C310        C  0.50479064  0.19391823  0.60195206     0.36900
N311        N  0.37353180  0.17846964  0.62128060    -0.38000
N312        N  0.52729224  0.19739688  0.59969753    -0.38000
N313        N  0.42126961  0.21892773  0.50928515    -0.37400
N314        N  0.47483389  0.14293828  0.69476900    -0.37400
C315        C  0.46622527  0.20156705  0.92959957    -0.04100
C316        C  0.47409783  0.20567413  0.87968377    -0.01200
C317        C  0.45575973  0.18745732  0.84363879     0.03800
C318        C  0.42996953  0.16448862  0.85746321    -0.04100
C319        C  0.42378632  0.15841893  0.90768300    -0.01200
C320        C  0.44162389  0.17713655  0.94368034     0.03800
C321        C  0.50153268  0.22776821  0.86552024     0.38400
C322        C  0.39976330  0.13241690  0.92243384     0.38400
C323        C  0.43446768  0.17124595  0.99516651     0.36900
C324        C  0.46372407  0.19198166  0.79235347     0.36900
N325        N  0.42829342  0.16631677  0.03606686    -0.38000
N326        N  0.47033869  0.19576687  0.75153756    -0.38000
N327        N  0.38113290  0.11142827  0.93485887    -0.37400
N328        N  0.02358951  0.24483595  0.85346406    -0.34400
C329        C  0.23310488  0.03081335  0.56936531    -0.04100
C330        C  0.22329974  0.04933032  0.55672316    -0.01200
C331        C  0.22089981  0.06612699  0.59324636     0.03800
C332        C  0.23176332  0.06732878  0.64089300    -0.04100
C333        C  0.24173755  0.04904957  0.65307798    -0.01200
C334        C  0.23890968  0.02870372  0.61934237     0.03800
C335        C  0.21700241  0.05230815  0.50604644     0.38400
C336        C  0.25606267  0.05172355  0.69935064     0.38400
C337        C  0.24110540  0.00516581  0.63660609     0.36900
C338        C  0.20871555  0.08327663  0.58095504     0.36900
N339        N  0.24225666  0.98617944  0.65118689    -0.38000
N340        N  0.19879408  0.09679642  0.57119665    -0.38000
N341        N  0.26808890  0.05416110  0.73566910    -0.37400
N342        N  0.21209588  0.05481971  0.46557867    -0.37400
C343        C  0.24616105  0.20634800  0.93769316    -0.04100
C344        C  0.22230667  0.19534968  0.90688105    -0.01200
C345        C  0.21943088  0.17759853  0.86748010     0.03800
C346        C  0.24026753  0.17017277  0.85869306    -0.04100
C347        C  0.26270869  0.17908873  0.89300504    -0.01200
C348        C  0.26525873  0.19660795  0.93251020     0.03800
C349        C  0.20074351  0.20263378  0.91495369     0.38400
C350        C  0.28269883  0.16934384  0.88958986     0.38400
C351        C  0.28693076  0.20365786  0.96925642     0.36900
C352        C  0.19512166  0.16769478  0.83567434     0.36900
N353        N  0.30406486  0.20882185  0.99866470    -0.38000
N354        N  0.17560054  0.15985878  0.81063911    -0.38000
N355        N  0.29853988  0.16145071  0.88716274    -0.37400
N356        N  0.18321350  0.20801031  0.92110056    -0.37400
C357        C  0.25450321  0.21691288  0.56870577    -0.04100
C358        C  0.25950499  0.19488092  0.55836054    -0.01200
C359        C  0.25721302  0.17623788  0.59584902     0.03800
C360        C  0.24784321  0.17818003  0.64308278    -0.04100
C361        C  0.24121901  0.19921512  0.65261510    -0.01200
C362        C  0.24461900  0.21855160  0.61562014     0.03800
C363        C  0.26519962  0.19023845  0.50841904     0.38400
C364        C  0.23135454  0.20132359  0.70078617     0.38400
C365        C  0.23661892  0.23929885  0.62510609     0.36900
C366        C  0.26391472  0.15464625  0.58536551     0.36900
N367        N  0.22979045  0.25553573  0.63267934    -0.38000
N368        N  0.26947774  0.13759447  0.57678443    -0.38000
N369        N  0.22360606  0.20333336  0.73915334    -0.37400
N370        N  0.26922007  0.18601627  0.46853282    -0.37400
C371        C  0.26308329  0.43185593  0.35674207    -0.04100
C372        C  0.24211114  0.41982456  0.39332309    -0.01200
C373        C  0.23957050  0.43654661  0.42967454     0.03800
C374        C  0.25706738  0.46567675  0.42881976    -0.04100
C375        C  0.27990319  0.47731263  0.39584700    -0.01200
C376        C  0.28334051  0.46043335  0.36104470     0.03800
C377        C  0.22416137  0.38997164  0.39569311     0.38400
C378        C  0.29951218  0.00722268  0.39554478     0.38400
C379        C  0.30832756  0.47276387  0.33095304     0.36900
C380        C  0.21966140  0.42359057  0.46929252     0.36900
N381        N  0.32882849  0.48273750  0.30842423    -0.38000
N382        N  0.20396185  0.41305416  0.50109166    -0.38000
N383        N  0.31511286  0.03082780  0.39551539    -0.37400
N384        N  0.21002802  0.36614400  0.39787896    -0.37400
C385        C  0.26957297  0.33757633  0.13594949    -0.04100
C386        C  0.25908120  0.33558817  0.08782211    -0.01200
C387        C  0.25734483  0.31500728  0.05539267     0.03800
C388        C  0.26612201  0.29627952  0.07078131    -0.04100
C389        C  0.28005163  0.30066968  0.11633988    -0.01200
C390        C  0.28202249  0.32143911  0.14861269     0.03800
C391        C  0.25327773  0.35660978  0.06931034     0.38400
C392        C  0.29353737  0.28477713  0.12901613     0.38400
C393        C  0.29768325  0.32681355  0.19411846     0.36900
C394        C  0.24789248  0.31400160  0.00523497     0.36900
N395        N  0.31049601  0.33133570  0.23009883    -0.38000
N396        N  0.24083559  0.31353134  0.96497325    -0.38000
N397        N  0.30475906  0.27252004  0.13921796    -0.37400
N398        N  0.24970688  0.37358842  0.05185007    -0.37400
C399        C  0.27081900  0.33391969  0.34165046    -0.04100
C400        C  0.27993996  0.34323237  0.38989730    -0.01200
C401        C  0.27900192  0.32455651  0.42629678     0.03800
C402        C  0.27029352  0.29659536  0.41415211    -0.04100
C403        C  0.26390525  0.28830320  0.36448142    -0.01200
C404        C  0.26203803  0.30612929  0.32948483     0.03800
C405        C  0.28855525  0.37167812  0.40285863     0.38400
C406        C  0.26060235  0.26199620  0.34861681     0.38400
C407        C  0.25008729  0.29549942  0.28149184     0.36900
C408        C  0.28607681  0.33419177  0.47647073     0.36900
N409        N  0.24004029  0.28692815  0.24351798    -0.38000
N410        N  0.29183702  0.34245543  0.51620023    -0.38000
N411        N  0.25851825  0.24133342  0.33519216    -0.37400
N412        N  0.29536295  0.39434796  0.41310156    -0.37400
C413        C  0.32111088  0.06705724  0.85353859    -0.04100
C414        C  0.31441959  0.07914691  0.89323053    -0.01200
C415        C  0.29567766  0.06227062  0.93009973     0.03800
C416        C  0.28168759  0.03314999  0.92591244    -0.04100
C417        C  0.28856980  0.02098756  0.88697308    -0.01200
C418        C  0.30815294  0.03780677  0.85097394     0.03800
C419        C  0.32717521  0.10904762  0.89705075     0.38400
C420        C  0.27558362  0.99104800  0.88416459     0.38400
C421        C  0.31375089  0.02469752  0.81014054     0.36900
C422        C  0.29219761  0.07493765  0.97394975     0.36900
N423        N  0.31780146  0.01371066  0.77786954    -0.38000
N424        N  0.29016335  0.08535033  0.00920053    -0.38000
N425        N  0.26563531  0.46730069  0.88181611    -0.37400
N426        N  0.33733437  0.13287981  0.90016024    -0.37400
C427        C  0.22295974  0.06329009  0.84872510    -0.04100
C428        C  0.21760187  0.03647464  0.83645780    -0.01200
C429        C  0.21985931  0.01949176  0.87278480     0.03800
C430        C  0.22585658  0.02873655  0.92187981    -0.04100
C431        C  0.22598838  0.05327412  0.93527721    -0.01200
C432        C  0.22529228  0.07089535  0.89861455     0.03800
C433        C  0.20813418  0.02576465  0.78745360     0.38400
C434        C  0.22647974  0.06017153  0.98672798     0.38400
C435        C  0.22567235  0.09618735  0.91250369     0.36900
C436        C  0.21476849  0.49193262  0.86009831     0.36900
N437        N  0.22532764  0.11592723  0.92458282    -0.38000
N438        N  0.21065696  0.47004434  0.84983830    -0.38000
N439        N  0.22654758  0.06548448  0.02780555    -0.37400
N440        N  0.19966740  0.01663739  0.74893481    -0.37400
C441        C  0.25026507  0.46703636  0.06764187    -0.04100
C442        C  0.23649463  0.43794663  0.06469666    -0.01200
C443        C  0.23720917  0.42220735  0.10464806     0.03800
C444        C  0.25688567  0.43516060  0.14311879    -0.04100
C445        C  0.27310775  0.46449633  0.14349674    -0.01200
C446        C  0.26888226  0.48035613  0.10707771     0.03800
C447        C  0.22403335  0.42424000  0.01873005     0.38400
C448        C  0.29305199  0.47863076  0.18254387     0.38400
C449        C  0.28384656  0.51037267  0.10992357     0.36900
C450        C  0.21689527  0.39283389  0.10619370     0.36900
N451        N  0.29580826  0.53432784  0.11202585    -0.38000
N452        N  0.20026463  0.36952221  0.10766359    -0.38000
N453        N  0.30920978  0.49050787  0.21316749    -0.37400
N454        N  0.21503074  0.41311194  0.98172845    -0.37400
C455        C  0.19513488  0.46442592  0.06517365    -0.04100
C456        C  0.17434356  0.43712936  0.05367296    -0.01200
C457        C  0.15785149  0.41901715  0.09138389     0.03800
C458        C  0.15851985  0.42945511  0.13888564    -0.04100
C459        C  0.17613164  0.45803160  0.14818161    -0.01200
C460        C  0.19542801  0.47515950  0.11216000     0.03800
C461        C  0.16936770  0.42798926  0.00299127     0.38400
C462        C  0.17486457  0.46971190  0.19497195     0.38400
C463        C  0.21530351  0.50390557  0.12304148     0.36900
C464        C  0.14086387  0.38962398  0.08137531     0.36900
N465        N  0.23170511  0.02712072  0.13268303    -0.38000
N466        N  0.12782988  0.36613197  0.07323525    -0.38000
N467        N  0.17369399  0.47920221  0.23203440    -0.37400
N468        N  0.16502910  0.42087643  0.96243707    -0.37400
C469        C  0.21735953  0.98169321  0.02937458     0.03500
C470        C  0.24396436  0.98347769  0.03132376     0.03500
C471        C  0.26460661  0.00040762  0.99734324    -0.17000
C472        C  0.25918039  0.51529511  0.96115841     0.03500
C473        C  0.23238489  0.51295178  0.95897339     0.03500
C474        C  0.21180737  0.49608406  0.99288624    -0.17000
H475        H  0.19142065  0.49458692  0.99152871     0.05600
H476        H  0.28497314  0.00186983  0.99870096     0.05600
O477        O  0.24432173  0.84742807  0.29043647    -0.73200
O478        O  0.23799752  0.89672074  0.19984774    -0.73200
O479        O  0.24268319  0.85036228  0.19103068    -0.73200
O480        O  0.24071845  0.89425007  0.29899384    -0.73300
O481        O  0.28701545  0.92038312  0.29557336    -0.73200
O482        O  0.28923202  0.87600952  0.18996526    -0.73200
O483        O  0.28434795  0.92264462  0.19568165    -0.73200
O484        O  0.29084442  0.87376561  0.28960907    -0.73200
Ni485      Ni  0.23980994  0.87131547  0.24510423     1.25400
Ni486      Ni  0.28951739  0.89917057  0.24250227     1.25400
C487        C  0.26847318  0.85251309  0.30529274     0.89000
C488        C  0.25983395  0.91759742  0.18225402     0.88900
C489        C  0.26648287  0.85556255  0.17370393     0.89000
C490        C  0.26367039  0.91461801  0.31529409     0.89100
O491        O  0.20584000  0.58332267  0.78995156    -0.73200
O492        O  0.21817991  0.63966559  0.69533754    -0.73200
O493        O  0.21018980  0.58721889  0.69042537    -0.73200
O494        O  0.21443015  0.63550355  0.79535518    -0.73300
O495        O  0.26053969  0.65350800  0.79806535    -0.73200
O496        O  0.25606281  0.60329790  0.69798696    -0.73200
O497        O  0.26418724  0.65559643  0.69836092    -0.73200
O498        O  0.25204653  0.60125560  0.79726898    -0.73200
Ni499      Ni  0.21051225  0.61088828  0.74241064     1.25400
Ni500      Ni  0.25983270  0.62903922  0.74803083     1.25400
C501        C  0.22699113  0.58341479  0.80978464     0.89000
C502        C  0.24308347  0.65662792  0.68083181     0.88900
C503        C  0.23245873  0.58684559  0.67795811     0.89000
C504        C  0.23823213  0.65224208  0.81480263     0.89100
O505        O  0.39253542  0.65398714  0.70281831    -0.73200
O506        O  0.33980387  0.60607949  0.79829869    -0.73200
O507        O  0.39102650  0.65242065  0.80237527    -0.73200
O508        O  0.34179952  0.60735907  0.69880795    -0.73300
O509        O  0.36252315  0.58187669  0.69974212    -0.73200
O510        O  0.41167794  0.62658949  0.80227349    -0.73200
O511        O  0.36027355  0.58017988  0.79957906    -0.73200
O512        O  0.41288241  0.62812267  0.70221689    -0.73200
Ni513      Ni  0.36556787  0.63087708  0.75063186     1.25400
Ni514      Ni  0.38755402  0.60326416  0.75112192     1.25400
C515        C  0.41105306  0.64881389  0.68564142     0.89000
C516        C  0.34126114  0.58527511  0.81491725     0.88900
C517        C  0.40959941  0.64695277  0.81893939     0.89000
C518        C  0.34428366  0.58724146  0.68156159     0.89100
O519        O  0.12246673  0.91364628  0.20001928    -0.73200
O520        O  0.07987594  0.86437271  0.30462167    -0.73200
O521        O  0.12662745  0.91428232  0.29936847    -0.73200
O522        O  0.07508794  0.86337266  0.20537382    -0.73300
O523        O  0.10013709  0.84184575  0.20207623    -0.73200
O524        O  0.15305108  0.89432326  0.29294328    -0.73200
O525        O  0.10628522  0.84436739  0.30072867    -0.73200
O526        O  0.14726286  0.89198054  0.19378818    -0.73200
Ni527      Ni  0.10008919  0.88967087  0.25241190     1.25400
Ni528      Ni  0.12761184  0.86740544  0.24710150     1.25400
C529        C  0.14187845  0.91084712  0.17974023     0.89000
C530        C  0.08640168  0.84655795  0.32038858     0.88900
C531        C  0.14809434  0.91248504  0.31187784     0.89000
C532        C  0.07894331  0.84400554  0.18889840     0.89100
C533        C  0.48254863  0.72392595  0.96632148     0.03500
C534        C  0.47852782  0.74685891  0.97287774     0.03500
C535        C  0.99193597  0.76530594  0.01151998    -0.17000
C536        C  0.01084912  0.76257146  0.04252783     0.03500
C537        C  0.01599380  0.74011737  0.03467525     0.03500
C538        C  0.00156468  0.72103620  0.99673230    -0.17000
H539        H  0.00514966  0.70380070  0.99073302     0.05600
H540        H  0.98790505  0.78230999  0.01687958     0.05600
C541        C  0.49461008  0.75581164  0.54963675     0.03500
C542        C  0.48851929  0.72791096  0.54274613     0.03500
C543        C  0.50155900  0.72167348  0.50433468    -0.17000
C544        C  0.01984451  0.74223817  0.47171772     0.03500
C545        C  0.02516898  0.76966128  0.47753567     0.03500
C546        C  0.51335934  0.77632001  0.51710125    -0.17000
H547        H  0.51815925  0.79759239  0.52152499     0.05600
H548        H  0.49708393  0.70053902  0.49925041     0.05600
O549        O  0.13301526  0.71160463  0.30533864    -0.73200
O550        O  0.08641112  0.71049367  0.19870283    -0.73200
O551        O  0.13620066  0.71175485  0.20567964    -0.73200
O552        O  0.08283460  0.70931122  0.29901100    -0.73300
O553        O  0.10579796  0.75550818  0.30204264    -0.73200
O554        O  0.15679540  0.75788054  0.20316747    -0.73200
O555        O  0.10686256  0.75638246  0.20220581    -0.73200
O556        O  0.15589790  0.75765157  0.30250964    -0.73200
Ni557      Ni  0.10877292  0.70910908  0.25210917     1.25400
Ni558      Ni  0.13206823  0.75847053  0.25247070     1.25400
C559        C  0.15238830  0.73505447  0.32139218     0.89000
C560        C  0.08898536  0.73340828  0.18268224     0.88900
C561        C  0.15506452  0.73514181  0.18874808     0.89000
C562        C  0.08606335  0.73195901  0.31700938     0.89100
O563        O  0.39483756  0.74239091  0.80405862    -0.73200
O564        O  0.35479345  0.74720935  0.69334190    -0.73200
O565        O  0.40245420  0.74494297  0.70575993    -0.73200
O566        O  0.34752895  0.74509552  0.79243671    -0.73300
O567        O  0.37283233  0.79121432  0.79719703    -0.73200
O568        O  0.42655810  0.79117605  0.70806197    -0.73200
O569        O  0.37876686  0.79337854  0.69762623    -0.73200
O570        O  0.42015280  0.78852223  0.80701263    -0.73200
Ni571      Ni  0.37396730  0.74327283  0.74870203     1.25400
Ni572      Ni  0.40042128  0.79273193  0.75253992     1.25400
C573        C  0.41423244  0.76459735  0.82351336     0.89000
C574        C  0.36018280  0.77098379  0.67712312     0.88900
C575        C  0.42348203  0.76810203  0.69259860     0.89000
C576        C  0.35172718  0.76816896  0.81029192     0.89100
C577        C  0.26042902  0.77218931  0.03819097     0.03500
C578        C  0.23665260  0.74555573  0.04342535     0.03500
C579        C  0.23272777  0.72424875  0.01113075    -0.17000
C580        C  0.25144268  0.72916246  0.97226636     0.03500
C581        C  0.27498748  0.75616943  0.96630806     0.03500
C582        C  0.27919621  0.77719042  0.99965247    -0.17000
H583        H  0.29696394  0.79784527  0.99495798     0.05600
H584        H  0.21455109  0.70384128  0.01558798     0.05600
C585        C  0.23889428  0.75055843  0.46063635     0.03500
C586        C  0.26529069  0.77498573  0.45327244     0.03500
C587        C  0.28767106  0.77987213  0.48467844    -0.17000
C588        C  0.28424192  0.76135391  0.52280643     0.03500
C589        C  0.25824150  0.73682832  0.52897026     0.03500
C590        C  0.23585990  0.73192604  0.49827383    -0.17000
H591        H  0.21572929  0.71347822  0.50409937     0.05600
H592        H  0.30785085  0.79838610  0.47986578     0.05600
C593        C  0.25140349  0.98435784  0.46166907     0.03500
C594        C  0.22544126  0.98403379  0.46039639     0.03500
C595        C  0.21973954  0.49891849  0.49517225    -0.17000
C596        C  0.23974622  0.51534463  0.53062503     0.03500
C597        C  0.26665174  0.51755176  0.52901835     0.03500
C598        C  0.27166378  0.50148539  0.49523479    -0.17000
H599        H  0.29227182  0.00323250  0.49446876     0.05600
H600        H  0.19960043  0.49788282  0.49489862     0.05600
C601        C  0.33283133  0.76807837  0.84907880    -0.04100
C602        C  0.30527905  0.76181102  0.83785957    -0.01200
C603        C  0.28713919  0.76035432  0.87576836     0.03800
C604        C  0.29564806  0.76282068  0.92551670    -0.04100
C605        C  0.32382750  0.77080005  0.93630645    -0.01200
C606        C  0.34246254  0.77404970  0.89809865     0.03800
C607        C  0.29582326  0.75749294  0.78722161     0.38400
C608        C  0.33359213  0.77495044  0.98682575     0.38400
C609        C  0.37157448  0.78334872  0.90943438     0.36900
C610        C  0.26025500  0.75763266  0.86343524     0.36900
N611        N  0.39484316  0.79117090  0.91874633    -0.38000
N612        N  0.23901408  0.75590598  0.85329206    -0.38000
N613        N  0.34144198  0.77824299  0.02707308    -0.37400
N614        N  0.28825133  0.75408067  0.74681442    -0.37400
C615        C  0.30760869  0.76829621  0.55778671    -0.04100
C616        C  0.31121253  0.78494857  0.59921900    -0.01200
C617        C  0.33007809  0.78754281  0.63676117     0.03800
C618        C  0.34423668  0.77226532  0.63419972    -0.04100
C619        C  0.34199819  0.75712794  0.59115518    -0.01200
C620        C  0.32472240  0.75631335  0.55213990     0.03800
C621        C  0.29510581  0.79895789  0.60395993     0.38400
C622        C  0.35753237  0.74247637  0.58671156     0.38400
C623        C  0.32529447  0.74405607  0.50560233     0.36900
C624        C  0.33390064  0.80495482  0.67895903     0.36900
N625        N  0.32641236  0.73486215  0.46818329    -0.38000
N626        N  0.33709388  0.81898020  0.71246907    -0.38000
N627        N  0.36981920  0.73069575  0.58298297    -0.37400
N628        N  0.28237410  0.81021956  0.60870102    -0.37400
C629        C  0.21444810  0.74033780  0.08006193    -0.04100
C630        C  0.21641196  0.73282494  0.12886561    -0.01200
C631        C  0.19707915  0.73117650  0.16458221     0.03800
C632        C  0.17495803  0.73588332  0.15125607    -0.04100
C633        C  0.17154980  0.74079042  0.10151777    -0.01200
C634        C  0.19139276  0.74339902  0.06621174     0.03800
C635        C  0.23762733  0.72573188  0.14192726     0.38400
C636        C  0.14684787  0.74170352  0.08590587     0.38400
C637        C  0.18769058  0.74880702  0.01540376     0.36900
C638        C  0.20031313  0.72499917  0.21508579     0.36900
N639        N  0.18426446  0.75311887  0.97508943    -0.38000
N640        N  0.20359810  0.72034366  0.25523179    -0.38000
N641        N  0.12701452  0.74179196  0.07205930    -0.37400
N642        N  0.25413638  0.71950477  0.15251232    -0.37400
C643        C  0.17144748  0.73661268  0.36206952    -0.04100
C644        C  0.18319690  0.75972322  0.39437184    -0.01200
C645        C  0.20320995  0.76264470  0.42970711     0.03800
C646        C  0.21380701  0.74423850  0.43014135    -0.04100
C647        C  0.20059865  0.71999991  0.40104849    -0.01200
C648        C  0.17886371  0.71574629  0.36834584     0.03800
C649        C  0.17425804  0.78028611  0.39275871     0.38400
C650        C  0.20998030  0.69980169  0.40327438     0.38400
C651        C  0.16490090  0.69014384  0.34052367     0.36900
C652        C  0.21206532  0.78394950  0.46704735     0.36900
N653        N  0.15379818  0.66963493  0.31858979    -0.38000
N654        N  0.21864916  0.80066837  0.49721831    -0.38000
N655        N  0.21739808  0.68365194  0.40476105    -0.37400
N656        N  0.16714424  0.79667711  0.39165602    -0.37400
C657        C  0.03451834  0.73526264  0.43289911    -0.04100
C658        C  0.05988063  0.73592523  0.44417677    -0.01200
C659        C  0.07598628  0.73342118  0.40645592     0.03800
C660        C  0.06727715  0.73099704  0.35699274    -0.04100
C661        C  0.04055039  0.72735026  0.34634615    -0.01200
C662        C  0.02398899  0.72898425  0.38439139     0.03800
C663        C  0.06920861  0.73869782  0.49479514     0.38400
C664        C  0.02990456  0.72136714  0.29647148     0.38400
C665        C  0.49562557  0.72272211  0.37412079     0.36900
C666        C  0.10062694  0.73165746  0.41907194     0.36900
N667        N  0.47275413  0.71696802  0.36566502    -0.38000
N668        N  0.11965446  0.72937614  0.43034975    -0.38000
N669        N  0.02129726  0.71644366  0.25672681    -0.37400
N670        N  0.07677629  0.74084012  0.53509723    -0.37400
C671        C  0.48007119  0.76350468  0.58835964    -0.04100
C672        C  0.46360616  0.77570114  0.57495800    -0.01200
C673        C  0.44613692  0.77832563  0.60978205     0.03800
C674        C  0.44428786  0.76822950  0.65791126    -0.04100
C675        C  0.46253568  0.75862559  0.67275450    -0.01200
C676        C  0.48106944  0.75720604  0.63858721     0.03800
C677        C  0.46397296  0.78535308  0.52533745     0.38400
C678        C  0.46279774  0.75113778  0.72369249     0.38400
C679        C  0.50207727  0.75066134  0.65568051     0.36900
C680        C  0.42967697  0.79112522  0.59582754     0.36900
N681        N  0.01904292  0.74585902  0.66996667    -0.38000
N682        N  0.41678176  0.80157635  0.58477706    -0.38000
N683        N  0.46288598  0.74544799  0.76457546    -0.37400
N684        N  0.46404932  0.79378636  0.48640373    -0.37400
C685        C  0.03608984  0.73610395  0.06629208    -0.04100
C686        C  0.02674832  0.71196233  0.09538803    -0.01200
C687        C  0.04421794  0.71063911  0.13217779     0.03800
C688        C  0.07123182  0.73365221  0.14087858    -0.04100
C689        C  0.08116731  0.75703157  0.10905024    -0.01200
C690        C  0.06415053  0.75745780  0.07056719     0.03800
C691        C  0.99868634  0.68867095  0.08921899     0.38400
C692        C  0.10894351  0.78091107  0.11510555     0.38400
C693        C  0.07576090  0.77963034  0.03443816     0.36900
C694        C  0.03340796  0.68593033  0.16256838     0.36900
N695        N  0.08524472  0.79717829  0.00542437    -0.38000
N696        N  0.02463109  0.66614598  0.18659268    -0.38000
N697        N  0.13102010  0.80006152  0.11970194    -0.37400
N698        N  0.97648790  0.66971751  0.08489868    -0.37400
C699        C  0.46188469  0.75316200  0.93737974    -0.04100
C700        C  0.47565493  0.77267426  0.89952392    -0.01200
C701        C  0.46006452  0.77780165  0.86416112     0.03800
C702        C  0.43052665  0.76231332  0.86487181    -0.04100
C703        C  0.41676561  0.74358767  0.90394479    -0.01200
C704        C  0.43250458  0.73980550  0.94101162     0.03800
C705        C  0.00590687  0.78695683  0.89576283     0.38400
C706        C  0.38643020  0.72869611  0.90685463     0.38400
C707        C  0.41851805  0.72301856  0.98371051     0.36900
C708        C  0.47458871  0.79817451  0.82580722     0.36900
N709        N  0.40708595  0.71002019  0.01802914    -0.38000
N710        N  0.48616352  0.81443576  0.79528768    -0.38000
N711        N  0.36225173  0.71682799  0.90934252    -0.37400
N712        N  0.02998241  0.79828000  0.89144226    -0.37400
C713        C  0.16719222  0.93153590  0.34958354    -0.04100
C714        C  0.19450529  0.95203945  0.33678860    -0.01200
C715        C  0.21160051  0.97180510  0.37178579     0.03800
C716        C  0.20392836  0.96790057  0.42193530    -0.04100
C717        C  0.17649768  0.94712998  0.43492317    -0.01200
C718        C  0.15779591  0.92987908  0.39831348     0.03800
C719        C  0.20544787  0.95241613  0.28824225     0.38400
C720        C  0.16757930  0.94286137  0.48581527     0.38400
C721        C  0.12919544  0.90971573  0.41120330     0.36900
C722        C  0.23622023  0.99692886  0.35561831     0.36900
N723        N  0.10634231  0.89384760  0.42159174    -0.38000
N724        N  0.25537610  0.01720932  0.34201705    -0.38000
N725        N  0.16039654  0.93942237  0.52638259    -0.37400
N726        N  0.21459847  0.95244387  0.25003386    -0.37400
C727        C  0.05877089  0.82381900  0.15348684    -0.04100
C728        C  0.04208291  0.79573575  0.16671937    -0.01200
C729        C  0.02421869  0.77624201  0.13169803     0.03800
C730        C  0.02556523  0.78405782  0.08176291    -0.04100
C731        C  0.04136400  0.81266206  0.06945696    -0.01200
C732        C  0.05664255  0.83248406  0.10587474     0.03800
C733        C  0.04280463  0.78716005  0.21680490     0.38400
C734        C  0.04300287  0.82216328  0.01932971     0.38400
C735        C  0.07030135  0.86184701  0.09423821     0.36900
C736        C  0.00354173  0.74867071  0.14766383     0.36900
N737        N  0.08078221  0.88523532  0.08502892    -0.38000
N738        N  0.98681269  0.72687770  0.16103500    -0.38000
N739        N  0.04492874  0.83080841  0.97996531    -0.37400
N740        N  0.04364684  0.78064126  0.25690177    -0.37400
C741        C  0.07078860  0.82815288  0.36217315    -0.04100
C742        C  0.08539869  0.82434937  0.40164554    -0.01200
C743        C  0.07051412  0.80651706  0.44093163     0.03800
C744        C  0.04104071  0.79116347  0.43967279    -0.04100
C745        C  0.02644157  0.79552887  0.40106543    -0.01200
C746        C  0.04122096  0.81422871  0.36282720     0.03800
C747        C  0.11578438  0.83929498  0.40262381     0.38400
C748        C  0.99609638  0.78044512  0.40011767     0.38400
C749        C  0.02582220  0.81822276  0.32321767     0.36900
C750        C  0.08551855  0.80477359  0.48342706     0.36900
N751        N  0.01349263  0.82138516  0.29171100    -0.38000
N752        N  0.09774637  0.80397976  0.51749765    -0.38000
N753        N  0.97189137  0.76839564  0.39858768    -0.37400
N754        N  0.14000790  0.85117775  0.40335201    -0.37400
C755        C  0.32611991  0.56994161  0.63974235    -0.04100
C756        C  0.31398285  0.58068165  0.60626691    -0.01200
C757        C  0.29790625  0.56465098  0.56611831     0.03800
C758        C  0.28981509  0.53632958  0.56308601    -0.04100
C759        C  0.30235440  0.52560931  0.59523118    -0.01200
C760        C  0.32134471  0.54261866  0.63172710     0.03800
C761        C  0.31701341  0.60787051  0.61298113     0.38400
C762        C  0.29535805  0.99701859  0.59160932     0.38400
C763        C  0.33548277  0.53130785  0.66082357     0.36900
C764        C  0.28994775  0.57746070  0.52743706     0.36900
N765        N  0.34703444  0.52213643  0.68281352    -0.38000
N766        N  0.28398390  0.58790260  0.49645412    -0.38000
N767        N  0.28938061  0.97394177  0.58924496    -0.37400
N768        N  0.31839661  0.62913661  0.61836490    -0.37400
C769        C  0.43030157  0.66701823  0.64568576    -0.04100
C770        C  0.45736499  0.67021642  0.63936224    -0.01200
C771        C  0.47614063  0.68939965  0.60470443     0.03800
C772        C  0.46779284  0.70473354  0.57441596    -0.04100
C773        C  0.43982523  0.69886003  0.57608055    -0.01200
C774        C  0.42168957  0.68142732  0.61299494     0.03800
C775        C  0.46674170  0.65486439  0.66971889     0.38400
C776        C  0.42946618  0.71032492  0.53884513     0.38400
C777        C  0.39435045  0.67904889  0.61697614     0.36900
C778        C  0.50442859  0.69397409  0.60154611     0.36900
N779        N  0.37293525  0.67804960  0.62015075    -0.38000
N780        N  0.52693668  0.69746672  0.59934672    -0.38000
N781        N  0.42103955  0.71916999  0.50895568    -0.37400
N782        N  0.47436896  0.64270834  0.69382283    -0.37400
C783        C  0.46585395  0.70215601  0.92913999    -0.04100
C784        C  0.47388545  0.70592884  0.87930471    -0.01200
C785        C  0.45554457  0.68764650  0.84331316     0.03800
C786        C  0.42954988  0.66494685  0.85711386    -0.04100
C787        C  0.42314268  0.65921515  0.90735675    -0.01200
C788        C  0.44100382  0.67799815  0.94327201     0.03800
C789        C  0.50149077  0.72772785  0.86521753     0.38400
C790        C  0.39895094  0.63339904  0.92228817     0.38400
C791        C  0.43370108  0.67237826  0.99475326     0.36900
C792        C  0.46371956  0.69182970  0.79212439     0.36900
N793        N  0.42744340  0.66765524  0.03565718    -0.38000
N794        N  0.47051477  0.69537864  0.75139210    -0.38000
N795        N  0.38022034  0.61254722  0.93496814    -0.37400
N796        N  0.02368031  0.74456402  0.85329115    -0.34400
C797        C  0.23247626  0.53013792  0.56931981    -0.04100
C798        C  0.22262705  0.54862640  0.55671854    -0.01200
C799        C  0.22017281  0.56535966  0.59329394     0.03800
C800        C  0.23105900  0.56655457  0.64091593    -0.04100
C801        C  0.24094783  0.54821036  0.65311907    -0.01200
C802        C  0.23815674  0.52791512  0.61931066     0.03800
C803        C  0.21633652  0.55164873  0.50605950     0.38400
C804        C  0.25513177  0.55075185  0.69949551     0.38400
C805        C  0.24024042  0.50430058  0.63648937     0.36900
C806        C  0.20787305  0.58242137  0.58110430     0.36900
N807        N  0.24127432  0.48523481  0.65097349    -0.38000
N808        N  0.19784210  0.59585527  0.57144022    -0.38000
N809        N  0.26704692  0.55307199  0.73590082    -0.37400
N810        N  0.21142245  0.55419734  0.46561460    -0.37400
C811        C  0.24572517  0.70617340  0.93696584    -0.04100
C812        C  0.22179207  0.69482766  0.90629681    -0.01200
C813        C  0.21910955  0.67716662  0.86687322     0.03800
C814        C  0.24018109  0.67008587  0.85793186    -0.04100
C815        C  0.26277521  0.67938887  0.89200921    -0.01200
C816        C  0.26511746  0.69680034  0.93158844     0.03800
C817        C  0.19981526  0.70148669  0.91460411     0.38400
C818        C  0.28318151  0.67019014  0.88826356     0.38400
C819        C  0.28682633  0.70401650  0.96832667     0.36900
C820        C  0.19471706  0.66699400  0.83518280     0.36900
N821        N  0.30398353  0.70929383  0.99773952    -0.38000
N822        N  0.17513853  0.65895013  0.81023658    -0.38000
N823        N  0.29938297  0.66276172  0.88556290    -0.37400
N824        N  0.18180328  0.70616025  0.92074487    -0.37400
C825        C  0.25384807  0.71597579  0.56783373    -0.04100
C826        C  0.25877752  0.69389285  0.55753716    -0.01200
C827        C  0.25655852  0.67532984  0.59511970     0.03800
C828        C  0.24737883  0.67744094  0.64242107    -0.04100
C829        C  0.24083723  0.69853146  0.65192941    -0.01200
C830        C  0.24410267  0.71774561  0.61480176     0.03800
C831        C  0.26436201  0.68914078  0.50759204     0.38400
C832        C  0.23120310  0.70081949  0.70021278     0.38400
C833        C  0.23605034  0.73846266  0.62418991     0.36900
C834        C  0.26315308  0.65365865  0.58468714     0.36900
N835        N  0.22915421  0.75465591  0.63168393    -0.38000
N836        N  0.26862683  0.63653994  0.57615008    -0.38000
N837        N  0.22363887  0.70294947  0.73867715    -0.37400
N838        N  0.26830841  0.68483201  0.46771556    -0.37400
C839        C  0.26311723  0.93196950  0.35714186    -0.04100
C840        C  0.24229484  0.92007073  0.39399408    -0.01200
C841        C  0.23985264  0.93693722  0.43015411     0.03800
C842        C  0.25724534  0.96607276  0.42876404    -0.04100
C843        C  0.27993358  0.97760610  0.39547479    -0.01200
C844        C  0.28332131  0.96058052  0.36093205     0.03800
C845        C  0.22439530  0.89021885  0.39680958     0.38400
C846        C  0.29957368  0.50690571  0.39646890     0.38400
C847        C  0.30821743  0.97278438  0.33062464     0.36900
C848        C  0.22018553  0.92413189  0.47015105     0.36900
N849        N  0.32867387  0.98267197  0.30797981    -0.38000
N850        N  0.20469220  0.91371347  0.50226594    -0.38000
N851        N  0.31524566  0.53049237  0.39688160    -0.37400
N852        N  0.21029932  0.86639576  0.39932947    -0.37400
C853        C  0.26787278  0.83667549  0.13631397    -0.04100
C854        C  0.25521039  0.83310497  0.08965247    -0.01200
C855        C  0.25401509  0.81293676  0.05681546     0.03800
C856        C  0.26485640  0.79567682  0.07066905    -0.04100
C857        C  0.28028795  0.80128611  0.11480907    -0.01200
C858        C  0.28208060  0.82193758  0.14725544     0.03800
C859        C  0.24594630  0.85189107  0.07284518     0.38400
C860        C  0.29522722  0.78659854  0.12595726     0.38400
C861        C  0.29886486  0.82822250  0.19159206     0.36900
C862        C  0.24317077  0.81107377  0.00747337     0.36900
N863        N  0.31244109  0.83338381  0.22675222    -0.38000
N864        N  0.23509498  0.81007590  0.96779644    -0.38000
N865        N  0.30751570  0.77523173  0.13490688    -0.37400
N866        N  0.23921381  0.86686522  0.05635755    -0.37400
C867        C  0.27023269  0.83355759  0.34194017    -0.04100
C868        C  0.27877841  0.84259718  0.39048687    -0.01200
C869        C  0.27785434  0.82382661  0.42665963     0.03800
C870        C  0.26955978  0.79601536  0.41408679    -0.04100
C871        C  0.26371659  0.78801599  0.36419839    -0.01200
C872        C  0.26210460  0.80599791  0.32921732     0.03800
C873        C  0.28693364  0.87087598  0.40388319     0.38400
C874        C  0.26076954  0.76188374  0.34813222     0.38400
C875        C  0.25119303  0.79581619  0.28051428     0.36900
C876        C  0.28460140  0.83323613  0.47699500     0.36900
N877        N  0.24198637  0.78763367  0.24191093    -0.38000
N878        N  0.29013396  0.84138511  0.51682052    -0.38000
N879        N  0.25897780  0.74136765  0.33456628    -0.37400
N880        N  0.29339891  0.89341298  0.41451160    -0.37400
C881        C  0.32076364  0.56720875  0.85304216    -0.04100
C882        C  0.31397843  0.57921606  0.89272913    -0.01200
C883        C  0.29549532  0.56228295  0.92982848     0.03800
C884        C  0.28164855  0.53316641  0.92565482    -0.04100
C885        C  0.28852669  0.52108420  0.88658041    -0.01200
C886        C  0.30796720  0.53797329  0.85047283     0.03800
C887        C  0.32631729  0.60908403  0.89624651     0.38400
C888        C  0.27571803  0.49116089  0.88377837     0.38400
C889        C  0.31352094  0.52494755  0.80944893     0.36900
C890        C  0.29223400  0.57489705  0.97394383     0.36900
N891        N  0.31752205  0.51403539  0.77699437    -0.38000
N892        N  0.29042368  0.58528451  0.00941523    -0.38000
N893        N  0.26534200  0.96717285  0.88218857    -0.37400
N894        N  0.33613959  0.63289166  0.89908875    -0.37400
C895        C  0.22274365  0.56305126  0.84871082    -0.04100
C896        C  0.21714231  0.53614788  0.83653698    -0.01200
C897        C  0.21955155  0.51923473  0.87279940     0.03800
C898        C  0.22577651  0.52858608  0.92180391    -0.04100
C899        C  0.22612337  0.55322444  0.93520046    -0.01200
C900        C  0.22543330  0.57083777  0.89853723     0.03800
C901        C  0.20732570  0.52530978  0.78771773     0.38400
C902        C  0.22684359  0.56024004  0.98663966     0.38400
C903        C  0.22624433  0.59634344  0.91236900     0.36900
C904        C  0.21503666  0.99217805  0.86007374     0.36900
N905        N  0.22628227  0.61628137  0.92439742    -0.38000
N906        N  0.21084627  0.97026748  0.84977830    -0.38000
N907        N  0.22709647  0.56566319  0.02770542    -0.37400
N908        N  0.19859086  0.51609991  0.74935462    -0.37400
C909        C  0.25017251  0.96726697  0.06837633    -0.04100
C910        C  0.23568144  0.93815342  0.06626139    -0.01200
C911        C  0.23584058  0.92254360  0.10682176     0.03800
C912        C  0.25627133  0.93522824  0.14425807    -0.04100
C913        C  0.27336926  0.96450749  0.14362848    -0.01200
C914        C  0.26922066  0.98050060  0.10732161     0.03800
C915        C  0.22316958  0.92418521  0.02052419     0.38400
C916        C  0.29415510  0.97851216  0.18153943     0.38400
C917        C  0.28463030  0.01052050  0.10986419     0.36900
C918        C  0.21385918  0.89383934  0.11047051     0.36900
N919        N  0.29689832  0.03447867  0.11181320    -0.38000
N920        N  0.19580024  0.87116295  0.11380724    -0.38000
N921        N  0.31104258  0.99029472  0.21116808    -0.37400
N922        N  0.21417044  0.91282902  0.98369871    -0.37400
C923        C  0.19515578  0.96488747  0.06579326    -0.04100
C924        C  0.17430135  0.93761606  0.05430406    -0.01200
C925        C  0.15801536  0.91944599  0.09210100     0.03800
C926        C  0.15872846  0.92986103  0.13963643    -0.04100
C927        C  0.17630034  0.95844420  0.14891931    -0.01200
C928        C  0.19559934  0.97557082  0.11289722     0.03800
C929        C  0.16916168  0.92851263  0.00360604     0.38400
C930        C  0.17497015  0.97013148  0.19566101     0.38400
C931        C  0.21567094  0.00423433  0.12394693     0.36900
C932        C  0.14129384  0.89001959  0.08216964     0.36900
N933        N  0.23115510  0.52686839  0.13160384    -0.38000
N934        N  0.12851566  0.86650370  0.07409634    -0.38000
N935        N  0.17372410  0.97962000  0.23267571    -0.37400
N936        N  0.16472439  0.92142031  0.96304878    -0.37400
C937        C  0.71731962  0.48131172  0.02879054     0.03500
C938        C  0.74395607  0.48318296  0.03067074     0.03500
C939        C  0.76461813  0.50025623  0.99684804    -0.17000
C940        C  0.75918112  0.01536129  0.96143147     0.03500
C941        C  0.73241436  0.01309120  0.95916792     0.03500
C942        C  0.71185838  0.99637287  0.99324918    -0.17000
H943        H  0.69149209  0.99492000  0.99185074     0.05600
H944        H  0.78501232  0.50177940  0.99818802     0.05600
O945        O  0.74499180  0.34764969  0.28961595    -0.73200
O946        O  0.73865165  0.39682266  0.19885653    -0.73200
O947        O  0.74388652  0.35082712  0.19017438    -0.73200
O948        O  0.74100674  0.39426435  0.29813442    -0.73300
O949        O  0.78729085  0.42061313  0.29530388    -0.73200
O950        O  0.79042555  0.37677408  0.18974643    -0.73200
O951        O  0.78501361  0.42304570  0.19532818    -0.73200
O952        O  0.79148950  0.37421514  0.28943660    -0.73200
Ni953      Ni  0.74051119  0.37150773  0.24420569     1.25400
Ni954      Ni  0.79021080  0.39964613  0.24228511     1.25400
C955        C  0.76911311  0.35284728  0.30483554     0.89000
C956        C  0.76048918  0.41775613  0.18143829     0.88900
C957        C  0.76783298  0.35630267  0.17313856     0.89000
C958        C  0.76384008  0.41466668  0.31476743     0.89100
O959        O  0.70612471  0.08366581  0.78996954    -0.73200
O960        O  0.71856066  0.14023447  0.69569460    -0.73200
O961        O  0.71070554  0.08782440  0.69042499    -0.73200
O962        O  0.71458197  0.13580931  0.79571928    -0.73300
O963        O  0.76069818  0.15383132  0.79865796    -0.73200
O964        O  0.75657879  0.10398335  0.69822002    -0.73200
O965        O  0.76457266  0.15623270  0.69899145    -0.73200
O966        O  0.75232164  0.10162534  0.79749592    -0.73200
Ni967      Ni  0.71084330  0.11133999  0.74258030     1.25400
Ni968      Ni  0.76016206  0.12954518  0.74846096     1.25400
C969        C  0.72725286  0.08373333  0.80986783     0.89000
C970        C  0.74348757  0.15727451  0.68138485     0.88900
C971        C  0.73303210  0.08753852  0.67801592     0.89000
C972        C  0.73834778  0.15248370  0.81536117     0.89100
O973        O  0.89289439  0.15390654  0.70335982    -0.73200
O974        O  0.84018220  0.10593098  0.79881434    -0.73200
O975        O  0.89146130  0.15217452  0.80287127    -0.73200
O976        O  0.84209935  0.10735534  0.69928542    -0.73300
O977        O  0.86276111  0.08181309  0.69987556    -0.73200
O978        O  0.91196540  0.12620628  0.80252974    -0.73200
O979        O  0.86050820  0.07990027  0.79975255    -0.73200
O980        O  0.91317701  0.12798542  0.70249541    -0.73200
Ni981      Ni  0.86593435  0.13075526  0.75115193     1.25400
Ni982      Ni  0.88780986  0.10304005  0.75131570     1.25400
C983        C  0.91139951  0.14874174  0.68609483     0.89000
C984        C  0.84158324  0.08507194  0.81530614     0.88900
C985        C  0.90997848  0.14659537  0.81930523     0.89000
C986        C  0.84455986  0.08726729  0.68182367     0.89100
O987        O  0.62228247  0.41325870  0.19936739    -0.73200
O988        O  0.58005411  0.36422490  0.30455686    -0.73200
O989        O  0.62671553  0.41418800  0.29863006    -0.73200
O990        O  0.57496702  0.36295130  0.20543595    -0.73300
O991        O  0.60005032  0.34145923  0.20208208    -0.73200
O992        O  0.65321109  0.39430547  0.29218132    -0.73200
O993        O  0.60654505  0.34430692  0.30062722    -0.73200
O994        O  0.64711040  0.39162736  0.19311046    -0.73200
Ni995      Ni  0.60007964  0.38940804  0.25206069     1.25400
Ni996      Ni  0.62766268  0.36720555  0.24670943     1.25400
C997        C  0.64167796  0.41045379  0.17902213     0.89000
C998        C  0.58665656  0.34646509  0.32034240     0.88900
C999        C  0.64823718  0.41247362  0.31103509     0.89000
C1000       C  0.57877732  0.34353304  0.18911355     0.89100
C1001       C  0.98266460  0.22334622  0.96689146     0.03500
C1002       C  0.97817612  0.24597388  0.97362106     0.03500
C1003       C  0.49117585  0.26429082  0.01258913    -0.17000
C1004       C  0.51029088  0.26187095  0.04355953     0.03500
C1005       C  0.51596022  0.23976694  0.03546296     0.03500
C1006       C  0.50182327  0.22071677  0.99733352    -0.17000
H1007       H  0.50577725  0.20373121  0.99116070     0.05600
H1008       H  0.48673059  0.28100877  0.01812314     0.05600
C1009       C  0.99496793  0.25568963  0.54959468     0.03500
C1010       C  0.98887076  0.22777467  0.54290240     0.03500
C1011       C  0.00194957  0.22149911  0.50460126    -0.17000
C1012       C  0.52026081  0.24203764  0.47194493     0.03500
C1013       C  0.52555993  0.26946483  0.47755585     0.03500
C1014       C  0.01370770  0.27615840  0.51699395    -0.17000
H1015       H  0.01846095  0.29742598  0.52126910     0.05600
H1016       H  0.99750268  0.20036516  0.49965114     0.05600
O1017       O  0.63402366  0.21238390  0.30556484    -0.73200
O1018       O  0.58733812  0.21107985  0.19895224    -0.73200
O1019       O  0.63730506  0.21265075  0.20592287    -0.73200
O1020       O  0.58373570  0.20977418  0.29924071    -0.73300
O1021       O  0.60656306  0.25596120  0.30259542    -0.73200
O1022       O  0.65754856  0.25874295  0.20326799    -0.73200
O1023       O  0.60744673  0.25692227  0.20276643    -0.73200
O1024       O  0.65678538  0.25841709  0.30262720    -0.73200
Ni1025     Ni  0.60976866  0.20978857  0.25232286     1.25400
Ni1026     Ni  0.63281076  0.25912691  0.25279693     1.25400
C1027       C  0.65332196  0.23586499  0.32162812     0.89000
C1028       C  0.58966961  0.23393628  0.18316225     0.88900
C1029       C  0.65603573  0.23608652  0.18891865     0.89000
C1030       C  0.58689307  0.23234789  0.31745856     0.89100
O1031       O  0.89523806  0.24202892  0.80359879    -0.73200
O1032       O  0.85522616  0.24720418  0.69321279    -0.73200
O1033       O  0.90288265  0.24491438  0.70530869    -0.73200
O1034       O  0.84794095  0.24477009  0.79230335    -0.73300
O1035       O  0.87324132  0.29087554  0.79746866    -0.73200
O1036       O  0.92703063  0.29113798  0.70815641    -0.73200
O1037       O  0.87924224  0.29336061  0.69793094    -0.73200
O1038       O  0.92053114  0.28814169  0.80713226    -0.73200
Ni1039     Ni  0.87438919  0.24309380  0.74838855     1.25400
Ni1040     Ni  0.90085890  0.29253898  0.75274848     1.25400
C1041       C  0.91456938  0.26415580  0.82337393     0.89000
C1042       C  0.86064254  0.27103334  0.67726833     0.88900
C1043       C  0.92393629  0.26811249  0.69239007     0.89000
C1044       C  0.85213490  0.26779265  0.81039567     0.89100
C1045       C  0.76143587  0.27268859  0.03835851     0.03500
C1046       C  0.73777746  0.24603561  0.04425141     0.03500
C1047       C  0.73366184  0.22460803  0.01211148    -0.17000
C1048       C  0.75213326  0.22940371  0.97291131     0.03500
C1049       C  0.77562132  0.25636926  0.96643700     0.03500
C1050       C  0.77998960  0.27753556  0.99952596    -0.17000
H1051       H  0.79775542  0.29815907  0.99448391     0.05600
H1052       H  0.71546807  0.20423368  0.01681612     0.05600
C1053       C  0.73950291  0.25147243  0.46155383     0.03500
C1054       C  0.76599635  0.27569674  0.45363918     0.03500
C1055       C  0.78843772  0.28052212  0.48482866    -0.17000
C1056       C  0.78497413  0.26212106  0.52318950     0.03500
C1057       C  0.75887925  0.23778060  0.52986217     0.03500
C1058       C  0.73642650  0.23298445  0.49948329    -0.17000
H1059       H  0.71622994  0.21468383  0.50568114     0.05600
H1060       H  0.80869407  0.29888784  0.47965642     0.05600
C1061       C  0.75112681  0.48387130  0.46180093     0.03500
C1062       C  0.72522747  0.48366556  0.46014653     0.03500
C1063       C  0.72006101  0.99934332  0.49548317    -0.17000
C1064       C  0.74022225  0.01590047  0.53065416     0.03500
C1065       C  0.76714171  0.01815172  0.52869690     0.03500
C1066       C  0.77207254  0.00209716  0.49477459    -0.17000
H1067       H  0.79183932  0.50256711  0.49520613     0.05600
H1068       H  0.69989665  0.99825596  0.49547785     0.05600
C1069       C  0.83323206  0.26762203  0.84923109    -0.04100
C1070       C  0.80573378  0.26152516  0.83799303    -0.01200
C1071       C  0.78767795  0.26029315  0.87586928     0.03800
C1072       C  0.79618827  0.26276345  0.92561404    -0.04100
C1073       C  0.82428502  0.27046060  0.93643794    -0.01200
C1074       C  0.84285710  0.27350465  0.89826591     0.03800
C1075       C  0.79624140  0.25711972  0.78737417     0.38400
C1076       C  0.83402244  0.27458566  0.98697759     0.38400
C1077       C  0.87189269  0.28249355  0.90967208     0.36900
C1078       C  0.76093371  0.25788073  0.86347568     0.36900
N1079       N  0.89509913  0.29006289  0.91908602    -0.38000
N1080       N  0.73983221  0.25643444  0.85320267    -0.38000
N1081       N  0.84180781  0.27785702  0.02726469    -0.37400
N1082       N  0.78864062  0.25361175  0.74698249    -0.37400
C1083       C  0.80837870  0.26902185  0.55799571    -0.04100
C1084       C  0.81189977  0.28546889  0.59967823    -0.01200
C1085       C  0.83058321  0.28775883  0.63732748     0.03800
C1086       C  0.84472554  0.27247200  0.63446418    -0.04100
C1087       C  0.84255405  0.25753262  0.59117979    -0.01200
C1088       C  0.82544402  0.25701051  0.55213111     0.03800
C1089       C  0.79593897  0.29963238  0.60444011     0.38400
C1090       C  0.85789700  0.24269785  0.58657749     0.38400
C1091       C  0.82611274  0.24500751  0.50536473     0.36900
C1092       C  0.83415491  0.30478101  0.67999452     0.36900
N1093       N  0.82729671  0.23602205  0.46776163    -0.38000
N1094       N  0.83711558  0.31846142  0.71392152    -0.38000
N1095       N  0.87000545  0.23074688  0.58270884    -0.37400
N1096       N  0.78333188  0.31103174  0.60904816    -0.37400
C1097       C  0.71557838  0.24108007  0.08068171    -0.04100
C1098       C  0.71654541  0.23221716  0.12891264    -0.01200
C1099       C  0.69726667  0.23079562  0.16453702     0.03800
C1100       C  0.67607094  0.23696114  0.15154582    -0.04100
C1101       C  0.67363563  0.24331014  0.10218124    -0.01200
C1102       C  0.69347805  0.24570379  0.06706845     0.03800
C1103       C  0.73664133  0.22353459  0.14142749     0.38400
C1104       C  0.64985341  0.24586444  0.08657997     0.38400
C1105       C  0.69062362  0.25219947  0.01648552     0.36900
C1106       C  0.69974449  0.22353307  0.21469913     0.36900
N1107       N  0.68795849  0.25726105  0.97623267    -0.38000
N1108       N  0.70244102  0.21802626  0.25459820    -0.38000
N1109       N  0.63076932  0.24731667  0.07260613    -0.37400
N1110       N  0.75223582  0.21604673  0.15156199    -0.37400
C1111       C  0.67229725  0.23750987  0.36252667    -0.04100
C1112       C  0.68422593  0.26083940  0.39435458    -0.01200
C1113       C  0.70410184  0.26376702  0.42997140     0.03800
C1114       C  0.71440233  0.24512760  0.43112490    -0.04100
C1115       C  0.70097603  0.22068265  0.40260142    -0.01200
C1116       C  0.67934972  0.21643764  0.36966750     0.03800
C1117       C  0.67558851  0.28161676  0.39202401     0.38400
C1118       C  0.71004826  0.20026173  0.40559341     0.38400
C1119       C  0.66506429  0.19057138  0.34266004     0.36900
C1120       C  0.71317391  0.28537390  0.46678188     0.36900
N1121       N  0.65369270  0.16983387  0.32143457    -0.38000
N1122       N  0.71994302  0.30235260  0.49650833    -0.38000
N1123       N  0.71721393  0.18393163  0.40771292    -0.37400
N1124       N  0.66869693  0.29816566  0.39033338    -0.37400
C1125       C  0.53501814  0.23506722  0.43330665    -0.04100
C1126       C  0.56057196  0.23615067  0.44461956    -0.01200
C1127       C  0.57685366  0.23391634  0.40692303     0.03800
C1128       C  0.56804567  0.23121437  0.35747260    -0.04100
C1129       C  0.54112916  0.22707972  0.34685202    -0.01200
C1130       C  0.52445338  0.22854122  0.38485908     0.03800
C1131       C  0.56989602  0.23905040  0.49526294     0.38400
C1132       C  0.53044768  0.22085687  0.29701887     0.38400
C1133       C  0.99597288  0.22190476  0.37461848     0.36900
C1134       C  0.60181435  0.23275341  0.41958382     0.36900
N1135       N  0.97301801  0.21586653  0.36621658    -0.38000
N1136       N  0.62111721  0.23097849  0.43098562    -0.38000
N1137       N  0.52182976  0.21575571  0.25729715    -0.37400
N1138       N  0.57743449  0.24127458  0.53559740    -0.37400
C1139       C  0.98046314  0.26345584  0.58821673    -0.04100
C1140       C  0.96389135  0.27550700  0.57466143    -0.01200
C1141       C  0.94645669  0.27819698  0.60946568     0.03800
C1142       C  0.94477714  0.26832279  0.65772278    -0.04100
C1143       C  0.96317246  0.25892671  0.67269358    -0.01200
C1144       C  0.98162327  0.25738710  0.63850878     0.03800
C1145       C  0.96406444  0.28485757  0.52486833     0.38400
C1146       C  0.96367033  0.25177984  0.72376501     0.38400
C1147       C  0.00265949  0.25088302  0.65560730     0.36900
C1148       C  0.92988988  0.29085739  0.59537944     0.36900
N1149       N  0.51963414  0.24609342  0.66989121    -0.38000
N1150       N  0.91692501  0.30121269  0.58418953    -0.38000
N1151       N  0.96397370  0.24637412  0.76474706    -0.37400
N1152       N  0.96398416  0.29300118  0.48574531    -0.37400
C1153       C  0.53631264  0.23608501  0.06698028    -0.04100
C1154       C  0.52736628  0.21186487  0.09569559    -0.01200
C1155       C  0.54498406  0.21075805  0.13243235     0.03800
C1156       C  0.57174247  0.23408265  0.14154480    -0.04100
C1157       C  0.58123520  0.25765907  0.11029757    -0.01200
C1158       C  0.56416297  0.25783224  0.07168255     0.03800
C1159       C  0.49954914  0.18822922  0.08919400     0.38400
C1160       C  0.60851564  0.28210540  0.11727366     0.38400
C1161       C  0.57548999  0.28022143  0.03595456     0.36900
C1162       C  0.53451986  0.18593302  0.16243891     0.36900
N1163       N  0.58474578  0.29796584  0.00729143    -0.38000
N1164       N  0.52600587  0.16606096  0.18616897    -0.38000
N1165       N  0.63018168  0.30172088  0.12261515    -0.37400
N1166       N  0.47757376  0.16897721  0.08462853    -0.37400
C1167       C  0.96164019  0.25224561  0.93781284    -0.04100
C1168       C  0.97559509  0.27217725  0.90062291    -0.01200
C1169       C  0.96017716  0.27745735  0.86512615     0.03800
C1170       C  0.93064923  0.26168391  0.86493255    -0.04100
C1171       C  0.91668185  0.24248677  0.90331177    -0.01200
C1172       C  0.93221179  0.23850076  0.94051830     0.03800
C1173       C  0.50588033  0.28666746  0.89755013     0.38400
C1174       C  0.88632206  0.22733733  0.90542699     0.38400
C1175       C  0.91791698  0.22100977  0.98234703     0.36900
C1176       C  0.97490133  0.29832349  0.82759208     0.36900
N1177       N  0.90619030  0.20739273  0.01591498    -0.38000
N1178       N  0.98664750  0.31499056  0.79775162    -0.38000
N1179       N  0.86212420  0.21527625  0.90725920    -0.37400
N1180       N  0.52998957  0.29812227  0.89374821    -0.37400
C1181       C  0.66726752  0.43151888  0.34876724    -0.04100
C1182       C  0.69466918  0.45191558  0.33622300    -0.01200
C1183       C  0.71171092  0.47160260  0.37137011     0.03800
C1184       C  0.70384941  0.46767447  0.42143420    -0.04100
C1185       C  0.67630969  0.44703418  0.43412809    -0.01200
C1186       C  0.65768662  0.42992643  0.39733636     0.03800
C1187       C  0.70572118  0.45230208  0.28777015     0.38400
C1188       C  0.66718558  0.44272603  0.48490695     0.38400
C1189       C  0.62895144  0.40998049  0.40987394     0.36900
C1190       C  0.73646589  0.49667141  0.35543357     0.36900
N1191       N  0.60598641  0.39429803  0.41993228    -0.38000
N1192       N  0.75573609  0.51690749  0.34199709    -0.38000
N1193       N  0.65982492  0.43925273  0.52537349    -0.37400
N1194       N  0.71494897  0.45234934  0.24962764    -0.37400
C1195       C  0.55846069  0.32324144  0.15404242    -0.04100
C1196       C  0.54201355  0.29514561  0.16738236    -0.01200
C1197       C  0.52395012  0.27559410  0.13262768     0.03800
C1198       C  0.52480865  0.28341126  0.08280007    -0.04100
C1199       C  0.54019987  0.31205511  0.07054077    -0.01200
C1200       C  0.55581728  0.33188619  0.10671889     0.03800
C1201       C  0.54323015  0.28660559  0.21728682     0.38400
C1202       C  0.54103983  0.32165037  0.02071531     0.38400
C1203       C  0.56942731  0.36125122  0.09505181     0.36900
C1204       C  0.50362817  0.24792071  0.14874480     0.36900
N1205       N  0.57991070  0.38463823  0.08583075    -0.38000
N1206       N  0.48719692  0.22602879  0.16221141    -0.38000
N1207       N  0.54228801  0.33048131  0.98170142    -0.37400
N1208       N  0.54447306  0.28012397  0.25723840    -0.37400
C1209       C  0.57108192  0.32803090  0.36212966    -0.04100
C1210       C  0.58572340  0.32438297  0.40171978    -0.01200
C1211       C  0.57086788  0.30648954  0.44097155     0.03800
C1212       C  0.54139968  0.29092005  0.43956389    -0.04100
C1213       C  0.52676770  0.29509398  0.40077186    -0.01200
C1214       C  0.54150927  0.31385045  0.36257238     0.03800
C1215       C  0.61610677  0.33954073  0.40282539     0.38400
C1216       C  0.49642767  0.27978380  0.39963658     0.38400
C1217       C  0.52608292  0.31764665  0.32277477     0.36900
C1218       C  0.58589464  0.30491065  0.48357400     0.36900
N1219       N  0.51374096  0.32065524  0.29110489    -0.38000
N1220       N  0.59815037  0.30425521  0.51771597    -0.38000
N1221       N  0.47222736  0.26756219  0.39798769    -0.37400
N1222       N  0.64032919  0.35158694  0.40363804    -0.37400
C1223       C  0.82645267  0.07012400  0.63984719    -0.04100
C1224       C  0.81448756  0.08103770  0.60636899    -0.01200
C1225       C  0.79849624  0.06515822  0.56602492     0.03800
C1226       C  0.79036259  0.03683770  0.56273254    -0.04100
C1227       C  0.80281077  0.02597782  0.59477862    -0.01200
C1228       C  0.82163027  0.04280315  0.63161981     0.03800
C1229       C  0.81756894  0.10823137  0.61332858     0.38400
C1230       C  0.79485012  0.49662460  0.59249644     0.38400
C1231       C  0.83547609  0.03127315  0.66095636     0.36900
C1232       C  0.79063731  0.07810581  0.52744437     0.36900
N1233       N  0.84678383  0.02191896  0.68315789    -0.38000
N1234       N  0.78475455  0.08865808  0.49654109    -0.38000
N1235       N  0.78881434  0.47352161  0.59050338    -0.37400
N1236       N  0.81899006  0.12950144  0.61890958    -0.37400
C1237       C  0.93068701  0.16702528  0.64622249    -0.04100
C1238       C  0.95775696  0.17023823  0.63990961    -0.01200
C1239       C  0.97651280  0.18936631  0.60514384     0.03800
C1240       C  0.96815224  0.20465193  0.57474171    -0.04100
C1241       C  0.94019465  0.19881914  0.57652729    -0.01200
C1242       C  0.92210100  0.18148005  0.61358846     0.03800
C1243       C  0.96717725  0.15499916  0.67047340     0.38400
C1244       C  0.92977440  0.21018604  0.53922463     0.38400
C1245       C  0.89485617  0.17929641  0.61784518     0.36900
C1246       C  0.00479015  0.19391702  0.60195169     0.36900
N1247       N  0.87353223  0.17847052  0.62128243    -0.38000
N1248       N  0.02729157  0.19739522  0.59969681    -0.38000
N1249       N  0.92127021  0.21892894  0.50928730    -0.37400
N1250       N  0.97483285  0.14293638  0.69476719    -0.37400
C1251       C  0.96622513  0.20156691  0.92959987    -0.04100
C1252       C  0.97409779  0.20567376  0.87968409    -0.01200
C1253       C  0.95575968  0.18745689  0.84363919     0.03800
C1254       C  0.92996933  0.16448841  0.85746367    -0.04100
C1255       C  0.92378597  0.15841896  0.90768346    -0.01200
C1256       C  0.94162360  0.17713659  0.94368072     0.03800
C1257       C  0.00153272  0.22776768  0.86552054     0.38400
C1258       C  0.89976277  0.13241710  0.92243443     0.38400
C1259       C  0.93446728  0.17124618  0.99516688     0.36900
C1260       C  0.96372418  0.19198088  0.79235392     0.36900
N1261       N  0.92829292  0.16631713  0.03606722    -0.38000
N1262       N  0.97033890  0.19576579  0.75153805    -0.38000
N1263       N  0.88113224  0.11142860  0.93485962    -0.37400
N1264       N  0.52358941  0.24483661  0.85346377    -0.34400
C1265       C  0.73310486  0.03081350  0.56936570    -0.04100
C1266       C  0.72329975  0.04933048  0.55672353    -0.01200
C1267       C  0.72089986  0.06612719  0.59324671     0.03800
C1268       C  0.73176340  0.06732901  0.64089332    -0.04100
C1269       C  0.74173767  0.04904982  0.65307829    -0.01200
C1270       C  0.73890970  0.02870391  0.61934276     0.03800
C1271       C  0.71700237  0.05230828  0.50604683     0.38400
C1272       C  0.75606292  0.05172390  0.69935085     0.38400
C1273       C  0.74110535  0.00516598  0.63660656     0.36900
C1274       C  0.70871563  0.08327686  0.58095539     0.36900
N1275       N  0.74225656  0.98617958  0.65118745    -0.38000
N1276       N  0.69879418  0.09679668  0.57119701    -0.38000
N1277       N  0.76808925  0.05416153  0.73566921    -0.37400
N1278       N  0.71209580  0.05481983  0.46557907    -0.37400
C1279       C  0.74616097  0.20634808  0.93769326    -0.04100
C1280       C  0.72230657  0.19534981  0.90688121    -0.01200
C1281       C  0.71943078  0.17759870  0.86748020     0.03800
C1282       C  0.74026744  0.17017296  0.85869310    -0.04100
C1283       C  0.76270858  0.17908885  0.89300508    -0.01200
C1284       C  0.76525861  0.19660799  0.93251033     0.03800
C1285       C  0.70074346  0.20263398  0.91495396     0.38400
C1286       C  0.78269878  0.16934402  0.88958978     0.38400
C1287       C  0.78693058  0.20365782  0.96925663     0.36900
C1288       C  0.69512157  0.16769502  0.83567442     0.36900
N1289       N  0.80406463  0.20882174  0.99866499    -0.38000
N1290       N  0.67560046  0.15985906  0.81063917    -0.38000
N1291       N  0.79853988  0.16145097  0.88716255    -0.37400
N1292       N  0.68321356  0.20801065  0.92110106    -0.37400
C1293       C  0.75450313  0.21691297  0.56870559    -0.04100
C1294       C  0.75950499  0.19488105  0.55836048    -0.01200
C1295       C  0.75721302  0.17623804  0.59584901     0.03800
C1296       C  0.74784309  0.17818014  0.64308269    -0.04100
C1297       C  0.74121878  0.19921517  0.65261487    -0.01200
C1298       C  0.74461877  0.21855163  0.61561987     0.03800
C1299       C  0.76519969  0.19023858  0.50841901     0.38400
C1300       C  0.73135423  0.20132362  0.70078588     0.38400
C1301       C  0.73661859  0.23929882  0.62510567     0.36900
C1302       C  0.76391486  0.15464648  0.58536564     0.36900
N1303       N  0.72979004  0.25553565  0.63267879    -0.38000
N1304       N  0.76947800  0.13759477  0.57678469    -0.38000
N1305       N  0.72360569  0.20333337  0.73915300    -0.37400
N1306       N  0.76922016  0.18601640  0.46853281    -0.37400
C1307       C  0.76308397  0.43185614  0.35674172    -0.04100
C1308       C  0.74211183  0.41982462  0.39332274    -0.01200
C1309       C  0.73957102  0.43654658  0.42967417     0.03800
C1310       C  0.75706781  0.46567673  0.42881951    -0.04100
C1311       C  0.77990367  0.47731274  0.39584686    -0.01200
C1312       C  0.78334109  0.46043358  0.36104444     0.03800
C1313       C  0.72416232  0.38997168  0.39569283     0.38400
C1314       C  0.79951203  0.00722252  0.39554527     0.38400
C1315       C  0.80832812  0.47276422  0.33095272     0.36900
C1316       C  0.71966183  0.42359044  0.46929198     0.36900
N1317       N  0.82882903  0.48273797  0.30842385    -0.38000
N1318       N  0.70396219  0.41305394  0.50109098    -0.38000
N1319       N  0.81511285  0.03082761  0.39551604    -0.37400
N1320       N  0.71002919  0.36614401  0.39787876    -0.37400
C1321       C  0.76957401  0.33757691  0.13594903    -0.04100
C1322       C  0.75908327  0.33558957  0.08782106    -0.01200
C1323       C  0.75734645  0.31500843  0.05539174     0.03800
C1324       C  0.76612251  0.29627988  0.07078092    -0.04100
C1325       C  0.78005137  0.30066933  0.11634014    -0.01200
C1326       C  0.78202247  0.32143885  0.14861294     0.03800
C1327       C  0.75328160  0.35661229  0.06930871     0.38400
C1328       C  0.79353616  0.28477598  0.12901707     0.38400
C1329       C  0.79768264  0.32681270  0.19411926     0.36900
C1330       C  0.74789462  0.31400317  0.00523378     0.36900
N1331       N  0.81049501  0.33133441  0.23010002    -0.38000
N1332       N  0.74083807  0.31353315  0.96497190    -0.38000
N1333       N  0.80475713  0.27251829  0.13921949    -0.37400
N1334       N  0.74971235  0.37359188  0.05184816    -0.37400
C1335       C  0.77081960  0.33391996  0.34165005    -0.04100
C1336       C  0.77994093  0.34323271  0.38989675    -0.01200
C1337       C  0.77900277  0.32455681  0.42629626     0.03800
C1338       C  0.77029400  0.29659555  0.41415170    -0.04100
C1339       C  0.76390540  0.28830332  0.36448111    -0.01200
C1340       C  0.76203811  0.30612942  0.32948464     0.03800
C1341       C  0.78855664  0.37167857  0.40285795     0.38400
C1342       C  0.76060220  0.26199622  0.34861644     0.38400
C1343       C  0.75008671  0.29549938  0.28149207     0.36900
C1344       C  0.78607789  0.33419212  0.47647015     0.36900
N1345       N  0.74003917  0.28692798  0.24351859    -0.38000
N1346       N  0.79183827  0.34245576  0.51619963    -0.38000
N1347       N  0.75851787  0.24133336  0.33519168    -0.37400
N1348       N  0.79536466  0.39434850  0.41310077    -0.37400
C1349       C  0.82111064  0.06705707  0.85353914    -0.04100
C1350       C  0.81441921  0.07914677  0.89323082    -0.01200
C1351       C  0.79567733  0.06227054  0.93010012     0.03800
C1352       C  0.78168735  0.03314990  0.92591307    -0.04100
C1353       C  0.78856970  0.02098743  0.88697398    -0.01200
C1354       C  0.80815286  0.03780659  0.85097481     0.03800
C1355       C  0.82717461  0.10904748  0.89705070     0.38400
C1356       C  0.77558366  0.99104787  0.88416578     0.38400
C1357       C  0.81375098  0.02469729  0.81014168     0.36900
C1358       C  0.79219729  0.07493765  0.97395005     0.36900
N1359       N  0.81780170  0.01371042  0.77787090    -0.38000
N1360       N  0.79016304  0.08535038  0.00920077    -0.38000
N1361       N  0.76563551  0.46730075  0.88181565    -0.37400
N1362       N  0.83733359  0.13287967  0.90015991    -0.37400
C1363       C  0.72295986  0.06329048  0.84872558    -0.04100
C1364       C  0.71760209  0.03647506  0.83645833    -0.01200
C1365       C  0.71985946  0.01949217  0.87278540     0.03800
C1366       C  0.72585652  0.02873689  0.92188047    -0.04100
C1367       C  0.72598827  0.05327446  0.93527778    -0.01200
C1368       C  0.72529227  0.07089571  0.89861504     0.03800
C1369       C  0.70813453  0.02576508  0.78745408     0.38400
C1370       C  0.72647952  0.06017186  0.98672853     0.38400
C1371       C  0.72567230  0.09618770  0.91250411     0.36900
C1372       C  0.71476839  0.49193232  0.86009779     0.36900
N1373       N  0.72532756  0.11592757  0.92458322    -0.38000
N1374       N  0.71065689  0.47004404  0.84983779    -0.38000
N1375       N  0.72654729  0.06548480  0.02780609    -0.37400
N1376       N  0.69966784  0.01663782  0.74893526    -0.37400
C1377       C  0.75026564  0.46703641  0.06764106    -0.04100
C1378       C  0.73649562  0.43794670  0.06469555    -0.01200
C1379       C  0.73721050  0.42220744  0.10464672     0.03800
C1380       C  0.75688662  0.43516086  0.14311791    -0.04100
C1381       C  0.77310823  0.46449662  0.14349622    -0.01200
C1382       C  0.76888266  0.48035629  0.10707707     0.03800
C1383       C  0.72403441  0.42424013  0.01872886     0.38400
C1384       C  0.79305204  0.47863116  0.18254389     0.38400
C1385       C  0.78384675  0.51037283  0.10992290     0.36900
C1386       C  0.71689743  0.39283371  0.10619151     0.36900
N1387       N  0.79580831  0.53432800  0.11202511    -0.38000
N1388       N  0.70026751  0.36952180  0.10766066    -0.38000
N1389       N  0.80920944  0.49050838  0.21316797    -0.37400
N1390       N  0.71503185  0.41311214  0.98172720    -0.37400
C1391       C  0.69513522  0.46442550  0.06517286    -0.04100
C1392       C  0.67434393  0.43712890  0.05367230    -0.01200
C1393       C  0.65785172  0.41901681  0.09138326     0.03800
C1394       C  0.65852009  0.42945489  0.13888491    -0.04100
C1395       C  0.67613191  0.45803139  0.14818072    -0.01200
C1396       C  0.69542829  0.47515920  0.11215908     0.03800
C1397       C  0.66936817  0.42798866  0.00299069     0.38400
C1398       C  0.67486481  0.46971180  0.19497092     0.38400
C1399       C  0.71530375  0.50390531  0.12304038     0.36900
C1400       C  0.64086381  0.38962366  0.08137478     0.36900
N1401       N  0.73170495  0.02712084  0.13268436    -0.38000
N1402       N  0.62782954  0.36613165  0.07323483    -0.38000
N1403       N  0.67369421  0.47920220  0.23203326    -0.37400
N1404       N  0.66502963  0.42087570  0.96243656    -0.37400
C1405       C  0.71735920  0.98169352  0.02937543     0.03500
C1406       C  0.74396390  0.98347771  0.03132442     0.03500
C1407       C  0.76460617  0.00040749  0.99734379    -0.17000
C1408       C  0.75918060  0.51529514  0.96115783     0.03500
C1409       C  0.73238499  0.51295155  0.95897275     0.03500
C1410       C  0.71180749  0.49608363  0.99288546    -0.17000
H1411       H  0.69142071  0.49458632  0.99152792     0.05600
H1412       H  0.78497260  0.00186950  0.99870142     0.05600
O1413       O  0.74432100  0.84742784  0.29043699    -0.73200
O1414       O  0.73799677  0.89672039  0.19984802    -0.73200
O1415       O  0.74268232  0.85036183  0.19103119    -0.73200
O1416       O  0.74071779  0.89424989  0.29899406    -0.73300
O1417       O  0.78701479  0.92038287  0.29557350    -0.73200
O1418       O  0.78923113  0.87600903  0.18996556    -0.73200
O1419       O  0.78434718  0.92264423  0.19568183    -0.73200
O1420       O  0.79084369  0.87376532  0.28960936    -0.73200
Ni1421     Ni  0.73980918  0.87131516  0.24510462     1.25400
Ni1422     Ni  0.78951663  0.89917021  0.24250249     1.25400
C1423       C  0.76847246  0.85251285  0.30529316     0.89000
C1424       C  0.75983319  0.91759709  0.18225432     0.88900
C1425       C  0.76648196  0.85556203  0.17370438     0.89000
C1426       C  0.76366974  0.91461784  0.31529423     0.89100
O1427       O  0.70583991  0.58332240  0.78995109    -0.73200
O1428       O  0.71817999  0.63966543  0.69533720    -0.73200
O1429       O  0.71018986  0.58721872  0.69042493    -0.73200
O1430       O  0.71443009  0.63550331  0.79535482    -0.73300
O1431       O  0.76053962  0.65350773  0.79806521    -0.73200
O1432       O  0.75606285  0.60329770  0.69798672    -0.73200
O1433       O  0.76418731  0.65559624  0.69836079    -0.73200
O1434       O  0.75204643  0.60125531  0.79726871    -0.73200
Ni1435     Ni  0.71051225  0.61088807  0.74241024     1.25400
Ni1436     Ni  0.75983268  0.62903898  0.74803065     1.25400
C1437       C  0.72699100  0.58341448  0.80978425     0.89000
C1438       C  0.74308358  0.65662775  0.68083161     0.88900
C1439       C  0.73245881  0.58684541  0.67795774     0.89000
C1440       C  0.73823205  0.65224184  0.81480237     0.89100
O1441       O  0.89253562  0.65398732  0.70281805    -0.73200
O1442       O  0.83980400  0.60607949  0.79829809    -0.73200
O1443       O  0.89102652  0.65242070  0.80237498    -0.73200
O1444       O  0.84179979  0.60735915  0.69880737    -0.73300
O1445       O  0.86252355  0.58187689  0.69974158    -0.73200
O1446       O  0.91167808  0.62658965  0.80227325    -0.73200
O1447       O  0.86027378  0.58017998  0.79957852    -0.73200
O1448       O  0.91288278  0.62812300  0.70221662    -0.73200
Ni1449     Ni  0.86556802  0.63087715  0.75063141     1.25400
Ni1450     Ni  0.88755431  0.60326435  0.75112151     1.25400
C1451       C  0.91105336  0.64881420  0.68564122     0.89000
C1452       C  0.84126133  0.58527515  0.81491668     0.88900
C1453       C  0.90959943  0.64695285  0.81893920     0.89000
C1454       C  0.84428400  0.58724157  0.68156106     0.89100
O1455       O  0.62246637  0.91364618  0.20002017    -0.73200
O1456       O  0.57987586  0.86437229  0.30462252    -0.73200
O1457       O  0.62662718  0.91428207  0.29936936    -0.73200
O1458       O  0.57508774  0.86337239  0.20537462    -0.73300
O1459       O  0.60013713  0.84184575  0.20207662    -0.73200
O1460       O  0.65305102  0.89432327  0.29294381    -0.73200
O1461       O  0.60628535  0.84436722  0.30072906    -0.73200
O1462       O  0.64726272  0.89198069  0.19378873    -0.73200
Ni1463     Ni  0.60008895  0.88967060  0.25241277     1.25400
Ni1464     Ni  0.62761184  0.86740545  0.24710196     1.25400
C1465       C  0.64187816  0.91084720  0.17974096     0.89000
C1466       C  0.58640178  0.84655762  0.32038923     0.88900
C1467       C  0.64809416  0.91248493  0.31187855     0.89000
C1468       C  0.57894325  0.84400541  0.18889895     0.89100
C1469       C  0.98254830  0.72392580  0.96632174     0.03500
C1470       C  0.97852726  0.74685861  0.97287814     0.03500
C1471       C  0.49193658  0.76530621  0.01151960    -0.17000
C1472       C  0.51084948  0.76257150  0.04252772     0.03500
C1473       C  0.51599390  0.74011723  0.03467535     0.03500
C1474       C  0.50156478  0.72103612  0.99673233    -0.17000
H1475       H  0.50514955  0.70380049  0.99073324     0.05600
H1476       H  0.48790583  0.78231035  0.01687908     0.05600
C1477       C  0.99460945  0.75581187  0.54963581     0.03500
C1478       C  0.98851906  0.72791132  0.54274538     0.03500
C1479       C  0.00155887  0.72167402  0.50433389    -0.17000
C1480       C  0.51984489  0.74223754  0.47171868     0.03500
C1481       C  0.52516974  0.76966078  0.47753674     0.03500
C1482       C  0.01335841  0.77632033  0.51710014    -0.17000
H1483       H  0.01815800  0.79759256  0.52152380     0.05600
H1484       H  0.99708415  0.70053971  0.49924979     0.05600
O1485       O  0.63301502  0.71160365  0.30533835    -0.73200
O1486       O  0.58641078  0.71049289  0.19870285    -0.73200
O1487       O  0.63620039  0.71175419  0.20567930    -0.73200
O1488       O  0.58283428  0.70931013  0.29901107    -0.73300
O1489       O  0.60579750  0.75550708  0.30204301    -0.73200
O1490       O  0.65679507  0.75787989  0.20316769    -0.73200
O1491       O  0.60686218  0.75638167  0.20220622    -0.73200
O1492       O  0.65589750  0.75765061  0.30250985    -0.73200
Ni1493     Ni  0.60877263  0.70910820  0.25210901     1.25400
Ni1494     Ni  0.63206784  0.75846965  0.25247101     1.25400
C1495       C  0.65238796  0.73505348  0.32139212     0.89000
C1496       C  0.58898501  0.73340754  0.18268249     0.88900
C1497       C  0.65506422  0.73514122  0.18874797     0.89000
C1498       C  0.58606296  0.73195784  0.31700964     0.89100
O1499       O  0.89483727  0.74239086  0.80405865    -0.73200
O1500       O  0.85479326  0.74720938  0.69334188    -0.73200
O1501       O  0.90245394  0.74494295  0.70575994    -0.73200
O1502       O  0.84752873  0.74509560  0.79243665    -0.73300
O1503       O  0.87283217  0.79121440  0.79719689    -0.73200
O1504       O  0.92655792  0.79117602  0.70806209    -0.73200
O1505       O  0.87876675  0.79337858  0.69762615    -0.73200
O1506       O  0.92015254  0.78852218  0.80701275    -0.73200
Ni1507     Ni  0.87396706  0.74327283  0.74870203     1.25400
Ni1508     Ni  0.90042111  0.79273194  0.75253993     1.25400
C1509       C  0.91423213  0.76459728  0.82351348     0.89000
C1510       C  0.86018267  0.77098383  0.67712304     0.88900
C1511       C  0.92348176  0.76810200  0.69259861     0.89000
C1512       C  0.85172700  0.76816906  0.81029178     0.89100
C1513       C  0.76042879  0.77218927  0.03819071     0.03500
C1514       C  0.73665226  0.74555573  0.04342464     0.03500
C1515       C  0.73272746  0.72424882  0.01112986    -0.17000
C1516       C  0.75144252  0.72916258  0.97226569     0.03500
C1517       C  0.77498740  0.75616954  0.96630781     0.03500
C1518       C  0.77919610  0.77719044  0.99965240    -0.17000
H1519       H  0.79696386  0.79784527  0.99495816     0.05600
H1520       H  0.71455075  0.70384138  0.01558686     0.05600
C1521       C  0.73889409  0.75055794  0.46063615     0.03500
C1522       C  0.76529032  0.77498549  0.45327246     0.03500
C1523       C  0.78767075  0.77987210  0.48467849    -0.17000
C1524       C  0.78424184  0.76135387  0.52280630     0.03500
C1525       C  0.75824156  0.73682807  0.52896997     0.03500
C1526       C  0.73585993  0.73192557  0.49827348    -0.17000
H1527       H  0.71572939  0.71347754  0.50409890     0.05600
H1528       H  0.80785045  0.79838629  0.47986595     0.05600
C1529       C  0.75140329  0.98435784  0.46166949     0.03500
C1530       C  0.72544110  0.98403386  0.46039685     0.03500
C1531       C  0.71973983  0.49891838  0.49517182    -0.17000
C1532       C  0.73974643  0.51534447  0.53062474     0.03500
C1533       C  0.76665193  0.51755153  0.52901827     0.03500
C1534       C  0.77166401  0.50148516  0.49523479    -0.17000
H1535       H  0.79227163  0.00323241  0.49446916     0.05600
H1536       H  0.69960073  0.49788273  0.49489805     0.05600
C1537       C  0.83283121  0.76807854  0.84907863    -0.04100
C1538       C  0.80527897  0.76181129  0.83785940    -0.01200
C1539       C  0.78713915  0.76035463  0.87576820     0.03800
C1540       C  0.79564801  0.76282089  0.92551652    -0.04100
C1541       C  0.82382743  0.77080021  0.93630627    -0.01200
C1542       C  0.84246244  0.77404984  0.89809847     0.03800
C1543       C  0.79582314  0.75749321  0.78722146     0.38400
C1544       C  0.83359208  0.77495055  0.98682556     0.38400
C1545       C  0.87157438  0.78334879  0.90943416     0.36900
C1546       C  0.76025502  0.75763313  0.86343514     0.36900
N1547       N  0.89484305  0.79117092  0.91874608    -0.38000
N1548       N  0.73901415  0.75590659  0.85329205    -0.38000
N1549       N  0.84144197  0.77824307  0.02707287    -0.37400
N1550       N  0.78825117  0.75408092  0.74681430    -0.37400
C1551       C  0.80760867  0.76829630  0.55778649    -0.04100
C1552       C  0.81121251  0.78494866  0.59921877    -0.01200
C1553       C  0.83007807  0.78754291  0.63676095     0.03800
C1554       C  0.84423660  0.77226537  0.63419958    -0.04100
C1555       C  0.84199806  0.75712792  0.59115511    -0.01200
C1556       C  0.82472237  0.75631343  0.55213974     0.03800
C1557       C  0.79510574  0.79895792  0.60395978     0.38400
C1558       C  0.85753202  0.74247612  0.58671167     0.38400
C1559       C  0.82529454  0.74405623  0.50560213     0.36900
C1560       C  0.83390061  0.80495494  0.67895879     0.36900
N1561       N  0.82641254  0.73486239  0.46818305    -0.38000
N1562       N  0.83709385  0.81898032  0.71246882    -0.38000
N1563       N  0.86981866  0.73069531  0.58298322    -0.37400
N1564       N  0.78237399  0.81021955  0.60870104    -0.37400
C1565       C  0.71444779  0.74033767  0.08006137    -0.04100
C1566       C  0.71641206  0.73282526  0.12886518    -0.01200
C1567       C  0.69707924  0.73117665  0.16458191     0.03800
C1568       C  0.67495775  0.73588291  0.15125582    -0.04100
C1569       C  0.67154919  0.74078964  0.10151748    -0.01200
C1570       C  0.69139212  0.74339838  0.06621129     0.03800
C1571       C  0.73762790  0.72573286  0.14192685     0.38400
C1572       C  0.64684697  0.74170225  0.08590575     0.38400
C1573       C  0.68768963  0.74880610  0.01540331     0.36900
C1574       C  0.70031356  0.72499969  0.21508555     0.36900
N1575       N  0.68426323  0.75311779  0.97508904    -0.38000
N1576       N  0.70359880  0.72034447  0.25523158    -0.38000
N1577       N  0.62701339  0.74179029  0.07205929    -0.37400
N1578       N  0.75413735  0.71950629  0.15251190    -0.37400
C1579       C  0.67144710  0.73661168  0.36206948    -0.04100
C1580       C  0.68319608  0.75972197  0.39437232    -0.01200
C1581       C  0.70320926  0.76264362  0.42970744     0.03800
C1582       C  0.71380677  0.74423779  0.43014117    -0.04100
C1583       C  0.70059873  0.71999932  0.40104795    -0.01200
C1584       C  0.67886376  0.71574557  0.36834526     0.03800
C1585       C  0.67425661  0.78028442  0.39275986     0.38400
C1586       C  0.70998074  0.69980138  0.40327355     0.38400
C1587       C  0.66490139  0.69014333  0.34052245     0.36900
C1588       C  0.71206429  0.78394818  0.46704806     0.36900
N1589       N  0.65379902  0.66963458  0.31858804    -0.38000
N1590       N  0.71864786  0.80066684  0.49721934    -0.38000
N1591       N  0.71739879  0.68365184  0.40476000    -0.37400
N1592       N  0.66714236  0.79667508  0.39165771    -0.37400
C1593       C  0.53451842  0.73526172  0.43289989    -0.04100
C1594       C  0.55988040  0.73592364  0.44417737    -0.01200
C1595       C  0.57598581  0.73341933  0.40645634     0.03800
C1596       C  0.56727680  0.73099575  0.35699317    -0.04100
C1597       C  0.54055026  0.72734956  0.34634673    -0.01200
C1598       C  0.52398902  0.72898363  0.38439216     0.03800
C1599       C  0.56920834  0.73869582  0.49479570     0.38400
C1600       C  0.52990446  0.72136692  0.29647200     0.38400
C1601       C  0.99562546  0.72272243  0.37411979     0.36900
C1602       C  0.60062607  0.73165483  0.41907207     0.36900
N1603       N  0.97275400  0.71696817  0.36566383    -0.38000
N1604       N  0.61965326  0.72937286  0.43034952    -0.38000
N1605       N  0.52129718  0.71644380  0.25672728    -0.37400
N1606       N  0.57677601  0.74083781  0.53509775    -0.37400
C1607       C  0.98007049  0.76350472  0.58835878    -0.04100
C1608       C  0.96360498  0.77570065  0.57495721    -0.01200
C1609       C  0.94613596  0.77832522  0.60978158     0.03800
C1610       C  0.94428744  0.76822949  0.65791095    -0.04100
C1611       C  0.96253565  0.75862603  0.67275401    -0.01200
C1612       C  0.98106929  0.75720652  0.63858641     0.03800
C1613       C  0.96397104  0.78535190  0.52533637     0.38400
C1614       C  0.96279828  0.75113869  0.72369212     0.38400
C1615       C  0.00207756  0.75066238  0.65567941     0.36900
C1616       C  0.92967578  0.79112461  0.59582731     0.36900
N1617       N  0.51904228  0.74585752  0.66996798    -0.38000
N1618       N  0.91678045  0.80157563  0.58477702    -0.38000
N1619       N  0.96288700  0.74544929  0.76457518    -0.37400
N1620       N  0.96404675  0.79378454  0.48640236    -0.37400
C1621       C  0.53608975  0.73610362  0.06629236    -0.04100
C1622       C  0.52674801  0.71196202  0.09538844    -0.01200
C1623       C  0.54421755  0.71063865  0.13217821     0.03800
C1624       C  0.57123153  0.73365159  0.14087888    -0.04100
C1625       C  0.58116720  0.75703093  0.10905047    -0.01200
C1626       C  0.56415051  0.75745730  0.07056740     0.03800
C1627       C  0.49868591  0.68867082  0.08921953     0.38400
C1628       C  0.60894352  0.78091027  0.11510572     0.38400
C1629       C  0.57576107  0.77962975  0.03443822     0.36900
C1630       C  0.53340738  0.68592992  0.16256895     0.36900
N1631       N  0.58524503  0.79717761  0.00542429    -0.38000
N1632       N  0.52463039  0.66614560  0.18659337    -0.38000
N1633       N  0.63102020  0.80006061  0.11970207    -0.37400
N1634       N  0.47648738  0.66971752  0.08489939    -0.37400
C1635       C  0.96188414  0.75316167  0.93738005    -0.04100
C1636       C  0.97565445  0.77267407  0.89952444    -0.01200
C1637       C  0.96006411  0.77780159  0.86416167     0.03800
C1638       C  0.93052624  0.76231319  0.86487205    -0.04100
C1639       C  0.91676512  0.74358738  0.90394480    -0.01200
C1640       C  0.93250401  0.73980509  0.94101165     0.03800
C1641       C  0.50590736  0.78695705  0.89576221     0.38400
C1642       C  0.88642970  0.72869580  0.90685444     0.38400
C1643       C  0.91851737  0.72301788  0.98371023     0.36900
C1644       C  0.97458839  0.79817467  0.82580815     0.36900
N1645       N  0.90708516  0.71001927  0.01802858    -0.38000
N1646       N  0.98616327  0.81443612  0.79528892    -0.38000
N1647       N  0.86225122  0.71682768  0.90934216    -0.37400
N1648       N  0.52998289  0.79828026  0.89144156    -0.37400
C1649       C  0.66719204  0.93153583  0.34958420    -0.04100
C1650       C  0.69450503  0.95203953  0.33678912    -0.01200
C1651       C  0.71160025  0.97180520  0.37178629     0.03800
C1652       C  0.70392817  0.96790064  0.42193582    -0.04100
C1653       C  0.67649756  0.94712995  0.43492381    -0.01200
C1654       C  0.65779581  0.92987892  0.39831422     0.03800
C1655       C  0.70544755  0.95241630  0.28824268     0.38400
C1656       C  0.66757926  0.94286135  0.48581596     0.38400
C1657       C  0.62919546  0.90971529  0.41120425     0.36900
C1658       C  0.73622000  0.99692894  0.35561882     0.36900
N1659       N  0.60634245  0.89384692  0.42159289    -0.38000
N1660       N  0.75537591  0.01720938  0.34201761    -0.38000
N1661       N  0.66039659  0.93942236  0.52638333    -0.37400
N1662       N  0.71459810  0.95244413  0.25003420    -0.37400
C1663       C  0.55877092  0.82381892  0.15348721    -0.04100
C1664       C  0.54208283  0.79573566  0.16671963    -0.01200
C1665       C  0.52421875  0.77624197  0.13169808     0.03800
C1666       C  0.52556560  0.78405781  0.08176291    -0.04100
C1667       C  0.54136455  0.81266204  0.06945704    -0.01200
C1668       C  0.55664285  0.83248401  0.10587501     0.03800
C1669       C  0.54280422  0.78715994  0.21680527     0.38400
C1670       C  0.54300389  0.82216327  0.01932969     0.38400
C1671       C  0.57030156  0.86184698  0.09423861     0.36900
C1672       C  0.50354161  0.74867071  0.14766374     0.36900
N1673       N  0.58078232  0.88523529  0.08502945    -0.38000
N1674       N  0.48681240  0.72687775  0.16103482    -0.38000
N1675       N  0.54493015  0.83080837  0.97996517    -0.37400
N1676       N  0.54364615  0.78064111  0.25690224    -0.37400
C1677       C  0.57078889  0.82815247  0.36217390    -0.04100
C1678       C  0.58539917  0.82434872  0.40164570    -0.01200
C1679       C  0.57051481  0.80651621  0.44093171     0.03800
C1680       C  0.54104138  0.79116285  0.43967360    -0.04100
C1681       C  0.52644207  0.79552847  0.40106681    -0.01200
C1682       C  0.54122125  0.81422837  0.36282855     0.03800
C1683       C  0.61578487  0.83929436  0.40262352     0.38400
C1684       C  0.49609687  0.78044478  0.40011961     0.38400
C1685       C  0.52582227  0.81822259  0.32321963     0.36900
C1686       C  0.58551951  0.80477222  0.48342627     0.36900
N1687       N  0.51349251  0.82138512  0.29171345    -0.38000
N1688       N  0.59774758  0.80397794  0.51749612    -0.38000
N1689       N  0.47189184  0.76839534  0.39859011    -0.37400
N1690       N  0.64000840  0.85117719  0.40335137    -0.37400
C1691       C  0.82612022  0.56994161  0.63974193    -0.04100
C1692       C  0.81398317  0.58068159  0.60626635    -0.01200
C1693       C  0.79790649  0.56465081  0.56611791     0.03800
C1694       C  0.78981525  0.53632938  0.56308594    -0.04100
C1695       C  0.80235452  0.52560916  0.59523129    -0.01200
C1696       C  0.82134492  0.54261861  0.63172701     0.03800
C1697       C  0.81701382  0.60787050  0.61298022     0.38400
C1698       C  0.79535777  0.99701845  0.59160974     0.38400
C1699       C  0.83548300  0.53130787  0.66082359     0.36900
C1700       C  0.78994803  0.57746045  0.52743646     0.36900
N1701       N  0.84703470  0.52213650  0.68281360    -0.38000
N1702       N  0.78398421  0.58790227  0.49645333    -0.38000
N1703       N  0.78938024  0.97394160  0.58924540    -0.37400
N1704       N  0.81839708  0.62913665  0.61836368    -0.37400
C1705       C  0.93030184  0.66701862  0.64568560    -0.04100
C1706       C  0.95736544  0.67021721  0.63936238    -0.01200
C1707       C  0.97614094  0.68940040  0.60470433     0.03800
C1708       C  0.96779282  0.70473386  0.57441539    -0.04100
C1709       C  0.93982510  0.69886000  0.57607985    -0.01200
C1710       C  0.92168961  0.68142739  0.61299450     0.03800
C1711       C  0.96674250  0.65486573  0.66971973     0.38400
C1712       C  0.92946577  0.71032440  0.53884404     0.38400
C1713       C  0.89435046  0.67904889  0.61697583     0.36900
C1714       C  0.00442906  0.69397527  0.60154623     0.36900
N1715       N  0.87293527  0.67804961  0.62015061    -0.38000
N1716       N  0.02693730  0.69746830  0.59934701    -0.38000
N1717       N  0.92103890  0.71916906  0.50895425    -0.37400
N1718       N  0.97437006  0.64271016  0.69382432    -0.37400
C1719       C  0.96585374  0.70215588  0.92914018    -0.04100
C1720       C  0.97388526  0.70592888  0.87930493    -0.01200
C1721       C  0.95554440  0.68764668  0.84331324     0.03800
C1722       C  0.92954979  0.66494689  0.85711381    -0.04100
C1723       C  0.92314262  0.65921497  0.90735667    -0.01200
C1724       C  0.94100368  0.67799791  0.94327207     0.03800
C1725       C  0.00149061  0.72772791  0.86521791     0.38400
C1726       C  0.89895099  0.63339871  0.92228789     0.38400
C1727       C  0.93370096  0.67237786  0.99475329     0.36900
C1728       C  0.96371932  0.69183021  0.79212444     0.36900
N1729       N  0.92744330  0.66765471  0.03565721    -0.38000
N1730       N  0.97051447  0.69537944  0.75139214    -0.38000
N1731       N  0.88022047  0.61254679  0.93496767    -0.37400
N1732       N  0.52368043  0.74456397  0.85329063    -0.34400
C1733       C  0.73247644  0.53013778  0.56931944    -0.04100
C1734       C  0.72262731  0.54862631  0.55671808    -0.01200
C1735       C  0.72017307  0.56535960  0.59329345     0.03800
C1736       C  0.73105912  0.56655442  0.64091554    -0.04100
C1737       C  0.74094784  0.54821013  0.65311877    -0.01200
C1738       C  0.73815680  0.52791491  0.61931033     0.03800
C1739       C  0.71633683  0.55164864  0.50605901     0.38400
C1740       C  0.75513160  0.55075149  0.69949537     0.38400
C1741       C  0.74024035  0.50430031  0.63648907     0.36900
C1742       C  0.70787345  0.58242140  0.58110368     0.36900
N1743       N  0.74127412  0.48523447  0.65097320    -0.38000
N1744       N  0.69784260  0.59585538  0.57143948    -0.38000
N1745       N  0.76704660  0.55307152  0.73590080    -0.37400
N1746       N  0.71142278  0.55419723  0.46561410    -0.37400
C1747       C  0.74572511  0.70617355  0.93696507    -0.04100
C1748       C  0.72179203  0.69482774  0.90629597    -0.01200
C1749       C  0.71910945  0.67716650  0.86687267     0.03800
C1750       C  0.74018099  0.67008572  0.85793149    -0.04100
C1751       C  0.76277511  0.67938884  0.89200883    -0.01200
C1752       C  0.76511739  0.69680045  0.93158786     0.03800
C1753       C  0.69981527  0.70148688  0.91460286     0.38400
C1754       C  0.78318138  0.67019005  0.88826345     0.38400
C1755       C  0.78682625  0.70401668  0.96832613     0.36900
C1756       C  0.69471686  0.66699363  0.83518244     0.36900
N1757       N  0.80398345  0.70929405  0.99773899    -0.38000
N1758       N  0.67513823  0.65894953  0.81023641    -0.38000
N1759       N  0.79938279  0.66276156  0.88556300    -0.37400
N1760       N  0.68180331  0.70616052  0.92074319    -0.37400
C1761       C  0.75384827  0.71597564  0.56783352    -0.04100
C1762       C  0.75877783  0.69389276  0.55753703    -0.01200
C1763       C  0.75655884  0.67532977  0.59511961     0.03800
C1764       C  0.74737901  0.67744081  0.64242088    -0.04100
C1765       C  0.74083732  0.69853127  0.65192914    -0.01200
C1766       C  0.74410280  0.71774542  0.61480148     0.03800
C1767       C  0.76436241  0.68914071  0.50759196     0.38400
C1768       C  0.73120299  0.70081920  0.70021241     0.38400
C1769       C  0.73605042  0.73846245  0.62418957     0.36900
C1770       C  0.76315351  0.65365864  0.58468716     0.36900
N1771       N  0.72915426  0.75465568  0.63168352    -0.38000
N1772       N  0.76862735  0.63653999  0.57615019    -0.38000
N1773       N  0.72363861  0.70294910  0.73867668    -0.37400
N1774       N  0.76830889  0.68483194  0.46771552    -0.37400
C1775       C  0.76311663  0.93196938  0.35714196    -0.04100
C1776       C  0.74229419  0.92007069  0.39399412    -0.01200
C1777       C  0.73985221  0.93693719  0.43015437     0.03800
C1778       C  0.75724505  0.96607271  0.42876442    -0.04100
C1779       C  0.77993327  0.97760598  0.39547513    -0.01200
C1780       C  0.78332085  0.96058036  0.36093225     0.03800
C1781       C  0.72439428  0.89021884  0.39680925     0.38400
C1782       C  0.79957410  0.50690583  0.39646898     0.38400
C1783       C  0.80821693  0.97278416  0.33062475     0.36900
C1784       C  0.72018520  0.92413189  0.47015146     0.36900
N1785       N  0.82867334  0.98267171  0.30797984    -0.38000
N1786       N  0.70469197  0.91371348  0.50226648    -0.38000
N1787       N  0.81524604  0.53049250  0.39688186    -0.37400
N1788       N  0.71029796  0.86639577  0.39932878    -0.37400
C1789       C  0.76787181  0.83667496  0.13631430    -0.04100
C1790       C  0.75520847  0.83310370  0.08965351    -0.01200
C1791       C  0.75401375  0.81293594  0.05681605     0.03800
C1792       C  0.76485604  0.79567673  0.07066884    -0.04100
C1793       C  0.78028815  0.80128651  0.11480830    -0.01200
C1794       C  0.78208057  0.82193783  0.14725486     0.03800
C1795       C  0.74594229  0.85188836  0.07284748     0.38400
C1796       C  0.79522810  0.78659954  0.12595579     0.38400
C1797       C  0.79886528  0.82822316  0.19159098     0.36900
C1798       C  0.74316913  0.81107279  0.00747416     0.36900
N1799       N  0.81244184  0.83338476  0.22675078    -0.38000
N1800       N  0.73509316  0.81007489  0.96779736    -0.38000
N1801       N  0.80751708  0.77523317  0.13490486    -0.37400
N1802       N  0.73920783  0.86686120  0.05636077    -0.37400
C1803       C  0.77023199  0.83355737  0.34194056    -0.04100
C1804       C  0.77877728  0.84259681  0.39048745    -0.01200
C1805       C  0.77785328  0.82382623  0.42666010     0.03800
C1806       C  0.76955917  0.79601512  0.41408700    -0.04100
C1807       C  0.76371633  0.78801591  0.36419847    -0.01200
C1808       C  0.76210438  0.80599785  0.32921742     0.03800
C1809       C  0.78693205  0.87087547  0.40388402     0.38400
C1810       C  0.76076962  0.76188382  0.34813218     0.38400
C1811       C  0.75119336  0.79581633  0.28051403     0.36900
C1812       C  0.78459997  0.83323559  0.47699560     0.36900
N1813       N  0.74198715  0.78763399  0.24191037    -0.38000
N1814       N  0.79013223  0.84138451  0.51682120    -0.38000
N1815       N  0.75897815  0.74136786  0.33456612    -0.37400
N1816       N  0.79339697  0.89341235  0.41451264    -0.37400
C1817       C  0.82076385  0.56720880  0.85304161    -0.04100
C1818       C  0.81397861  0.57921612  0.89272853    -0.01200
C1819       C  0.79549544  0.56228302  0.92982782     0.03800
C1820       C  0.78164869  0.53316647  0.92565418    -0.04100
C1821       C  0.78852688  0.52108427  0.88657985    -0.01200
C1822       C  0.80796743  0.53797334  0.85047234     0.03800
C1823       C  0.82631754  0.60908410  0.89624597     0.38400
C1824       C  0.77571823  0.49116095  0.88377786     0.38400
C1825       C  0.81352130  0.52494759  0.80944863     0.36900
C1826       C  0.79223404  0.57489713  0.97394310     0.36900
N1827       N  0.81752250  0.51403538  0.77699427    -0.38000
N1828       N  0.79042368  0.58528461  0.00941443    -0.38000
N1829       N  0.76534217  0.96717272  0.88219000    -0.37400
N1830       N  0.83613991  0.63289174  0.89908826    -0.37400
C1831       C  0.72274348  0.56305093  0.84871038    -0.04100
C1832       C  0.71714209  0.53614754  0.83653653    -0.01200
C1833       C  0.71955143  0.51923442  0.87279890     0.03800
C1834       C  0.72577648  0.52858579  0.92180337    -0.04100
C1835       C  0.72612331  0.55322413  0.93519998    -0.01200
C1836       C  0.72543320  0.57083746  0.89853680     0.03800
C1837       C  0.70732540  0.52530943  0.78771732     0.38400
C1838       C  0.72684354  0.56023971  0.98663920     0.38400
C1839       C  0.72624430  0.59634315  0.91236858     0.36900
C1840       C  0.71503695  0.99217852  0.86007433     0.36900
N1841       N  0.72628231  0.61628112  0.92439697    -0.38000
N1842       N  0.71084670  0.97026799  0.84977887    -0.38000
N1843       N  0.72709642  0.56566285  0.02770496    -0.37400
N1844       N  0.69859051  0.51609955  0.74935423    -0.37400
C1845       C  0.75017194  0.96726689  0.06837692    -0.04100
C1846       C  0.73568052  0.93815334  0.06626226    -0.01200
C1847       C  0.73583946  0.92254356  0.10682280     0.03800
C1848       C  0.75627059  0.93522803  0.14425859    -0.04100
C1849       C  0.77336890  0.96450723  0.14362864    -0.01200
C1850       C  0.76922031  0.98050044  0.10732195     0.03800
C1851       C  0.72316855  0.92418503  0.02052519     0.38400
C1852       C  0.79415513  0.97851179  0.18153905     0.38400
C1853       C  0.78463013  0.01052033  0.10986451     0.36900
C1854       C  0.71385729  0.89383967  0.11047255     0.36900
N1855       N  0.79689828  0.03447850  0.11181354    -0.38000
N1856       N  0.69579768  0.87116366  0.11381021    -0.38000
N1857       N  0.81104294  0.99029426  0.21116726    -0.37400
N1858       N  0.71416933  0.91282875  0.98369983    -0.37400
C1859       C  0.69515539  0.96488781  0.06579407    -0.04100
C1860       C  0.67430093  0.93761642  0.05430477    -0.01200
C1861       C  0.65801503  0.91944626  0.09210169     0.03800
C1862       C  0.65872809  0.92986122  0.13963718    -0.04100
C1863       C  0.67629993  0.95844438  0.14892015    -0.01200
C1864       C  0.69559897  0.97557106  0.11289814     0.03800
C1865       C  0.66916117  0.92851310  0.00360670     0.38400
C1866       C  0.67496966  0.97013161  0.19566187     0.38400
C1867       C  0.71567067  0.00423451  0.12394806     0.36900
C1868       C  0.64129376  0.89001985  0.08217027     0.36900
N1869       N  0.73115530  0.52686816  0.13160259    -0.38000
N1870       N  0.62851582  0.86650396  0.07409690    -0.38000
N1871       N  0.67372353  0.97962007  0.23267658    -0.37400
N1872       N  0.66472383  0.92142087  0.96304940    -0.37400
loop_ 
_geom_bond_atom_site_label_1 
_geom_bond_atom_site_label_2 
_geom_bond_distance 
_geom_bond_site_symmetry_2 
_ccdc_geom_bond_type 
C1            C2   1.419       .  A
C1          C474   1.400   1_554  A
C1          C455   1.489       .  S
C2            C3   1.404   1_554  A
C2          C441   1.496       .  S
C3          C472   1.404       .  A
C3            H8   1.084       .  S
C4            C5   1.417       .  A
C4          C471   1.405       .  A
C4          C416   1.494       .  S
C5            C6   1.401   1_545  A
C5          C430   1.490       .  S
C6          C469   1.401   1_556  A
C6            H7   1.084       .  S
O9          Ni17   1.913       .  S
O9           C19   1.278       .  A
O10         Ni17   1.909       .  S
O10          C20   1.279       .  A
O11         Ni17   1.936       .  S
O11          C21   1.285       .  A
O12         Ni17   1.933       .  S
O12          C22   1.286       .  A
O13         Ni18   1.916       .  S
O13          C22   1.280       .  A
O14         Ni18   1.922       .  S
O14          C21   1.280       .  A
O15         Ni18   1.940       .  S
O15          C20   1.286       .  A
O16         Ni18   1.933       .  S
O16          C19   1.285       .  A
Ni17        Ni18   2.384       .  S
C19         C399   1.486       .  S
C20         C444   1.498       .  S
C21         C385   1.492       .  S
C22         C371   1.507       .  S
O23         Ni31   1.921       .  S
O23          C33   1.279       .  A
O24         Ni31   1.924       .  S
O24          C34   1.282       .  A
O25         Ni31   1.932       .  S
O25          C35   1.284       .  A
O26         Ni31   1.929       .  S
O26          C36   1.284       .  A
O27         Ni32   1.915       .  S
O27          C36   1.281       .  A
O28         Ni32   1.914       .  S
O28          C35   1.280       .  A
O29         Ni32   1.924       .  S
O29          C34   1.282       .  A
O30         Ni32   1.924       .  S
O30          C33   1.283       .  A
Ni31        Ni32   2.385       .  S
C33         C427   1.481       .  S
C34         C360   1.487       .  S
C35         C332   1.490       .  S
C36         C346   1.508       .  S
O37         Ni45   1.912       .  S
O37          C47   1.280       .  A
O38         Ni45   1.912       .  S
O38          C48   1.280       .  A
O39         Ni45   1.926       .  S
O39          C49   1.283       .  A
O40         Ni45   1.926       .  S
O40          C50   1.284       .  A
O41         Ni46   1.906       .  S
O41          C50   1.278       .  A
O42         Ni46   1.915       .  S
O42          C49   1.278       .  A
O43         Ni46   1.933       .  S
O43          C48   1.285       .  A
O44         Ni46   1.928       .  S
O44          C47   1.284       .  A
Ni45        Ni46   2.382       .  S
C47         C301   1.506       .  S
C48         C413   1.496       .  S
C49         C318   1.480       .  S
C50         C287   1.504       .  S
O51         Ni59   1.923       .  S
O51          C61   1.282       .  A
O52         Ni59   1.919       .  S
O52          C62   1.282       .  A
O53         Ni59   1.909       .  S
O53          C63   1.279       .  A
O54         Ni59   1.914       .  S
O54          C64   1.280       .  A
O55         Ni60   1.916       .  S
O55          C64   1.281       .  A
O56         Ni60   1.917       .  S
O56          C63   1.281       .  A
O57         Ni60   1.912       .  S
O57          C62   1.280       .  A
O58         Ni60   1.916       .  S
O58          C61   1.280       .  A
Ni59        Ni60   2.392       .  S
C61         C458   1.482       .  S
C62         C273   1.485       .  S
C63         C245   1.473       .  S
C64         C259   1.477       .  S
C65          C66   1.410       .  A
C65        C1006   1.402       .  A
C65         C315   1.493       .  S
C66        C1003   1.397   1_556  A
C66         C231   1.485       .  S
C67          C68   1.403   1_655  A
C67        C1002   1.397   1_554  A
C67          H72   1.084       .  S
C68          C69   1.429       .  A
C68         C262   1.505       .  S
C69          C70   1.410   1_554  A
C69         C217   1.501       .  S
C70        C1001   1.402   1_455  A
C70          H71   1.083       .  S
C73          C74   1.428       .  A
C73          C78   1.407       .  A
C73         C203   1.511       .  S
C74          C75   1.410       .  A
C74         C304   1.499       .  S
C75        C1012   1.402       .  A
C75          H80   1.084       .  S
C76          C77   1.412       .  A
C76        C1011   1.402       .  A
C76         C189   1.497       .  S
C77        C1014   1.403       .  A
C77         C276   1.489       .  S
C78        C1013   1.403       .  A
C78          H79   1.083       .  S
O81         Ni89   1.923       .  S
O81          C91   1.283       .  A
O82         Ni89   1.927       .  S
O82          C92   1.285       .  A
O83         Ni89   1.923       .  S
O83          C93   1.280       .  A
O84         Ni89   1.924       .  S
O84          C94   1.280       .  A
O85         Ni90   1.929       .  S
O85          C94   1.283       .  A
O86         Ni90   1.929       .  S
O86          C93   1.283       .  A
O87         Ni90   1.906       .  S
O87          C92   1.278       .  A
O88         Ni90   1.902       .  S
O88          C91   1.278       .  A
Ni89        Ni90   2.382       .  S
C91         C175   1.495       .  S
C92         C220   1.502       .  S
C93         C164   1.487       .  S
C94         C192   1.487       .  S
O95        Ni103   1.906       .  S
O95         C105   1.279       .  A
O96        Ni103   1.909       .  S
O96         C106   1.279       .  A
O97        Ni103   1.925       .  S
O97         C107   1.282       .  A
O98        Ni103   1.926       .  S
O98         C108   1.283       .  A
O99        Ni104   1.918       .  S
O99         C108   1.280       .  A
O100       Ni104   1.920       .  S
O100        C107   1.281       .  A
O101       Ni104   1.919       .  S
O101        C106   1.282       .  A
O102       Ni104   1.916       .  S
O102        C105   1.282       .  A
Ni103      Ni104   2.391       .  S
C105        C234   1.481       .  S
C106        C150   1.481       .  S
C107        C206   1.485       .  S
C108        C133   1.484       .  S
C109        C110   1.414       .  A
C109        C114   1.403   1_554  A
C109        C388   1.496       .  S
C110        C111   1.405       .  A
C110        C161   1.493       .  S
C111        C112   1.408   1_554  A
C111        H116   1.084       .  S
C112        C113   1.423       .  A
C112        C343   1.503       .  S
C113        C114   1.407       .  A
C113        C136   1.501       .  S
C114        H115   1.084       .  S
C117        C118   1.427       .  A
C117        C122   1.404       .  A
C117        C178   1.493       .  S
C118        C119   1.408       .  A
C118        C402   1.510       .  S
C119        C120   1.405       .  A
C119        H124   1.084       .  S
C120        C121   1.413       .  A
C120        C147   1.485       .  S
C121        C122   1.396       .  A
C121        C357   1.496       .  S
C122        H123   1.084       .  S
C125        C126   1.421       .  A
C125        C598   1.401       .  A
C125        C374   1.509       .  S
C126        C595   1.409       .  A
C126        C248   1.498       .  S
C127        C128   1.407   1_565  A
C127        C594   1.409       .  A
C127        H132   1.082       .  S
C128        C129   1.426       .  A
C128        C329   1.512       .  S
C129        C130   1.405       .  A
C129        C290   1.500       .  S
C130        C593   1.401   1_545  A
C130        H599   1.082       .  S
H131        C598   1.082       .  S
C133        C134   1.410       .  A
C133        C138   1.412       .  A
C134        C135   1.413       .  A
C134        C139   1.449       .  S
C135        C136   1.416       .  A
C135        C142   1.449       .  S
C136        C137   1.415       .  A
C137        C138   1.411       .  A
C137        C140   1.451       .  S
C138        C141   1.451       .  S
C139        N146   1.157       .  T
C140        N145   1.157   1_556  T
C141        N143   1.157       .  T
C142        N144   1.157       .  T
C147        C148   1.411       .  A
C147        C152   1.408       .  A
C148        C149   1.409       .  A
C148        C153   1.449       .  S
C149        C150   1.412       .  A
C149        C156   1.451       .  S
C150        C151   1.415       .  A
C151        C152   1.408       .  A
C151        C154   1.451       .  S
C152        C155   1.449       .  S
C153        N160   1.157       .  T
C154        N159   1.157       .  T
C155        N157   1.157       .  T
C156        N158   1.157       .  T
C161        C162   1.411       .  A
C161        C166   1.411       .  A
C162        C163   1.414       .  A
C162        C167   1.449       .  S
C163        C164   1.413       .  A
C163        C170   1.447       .  S
C164        C165   1.411       .  A
C165        C166   1.410       .  A
C165        C168   1.447       .  S
C166        C169   1.450       .  S
C167        N174   1.157       .  T
C168        N173   1.156       .  T
C169        N171   1.157   1_554  T
C170        N172   1.156       .  T
C175        C176   1.422       .  A
C175        C180   1.418       .  A
C176        C177   1.407       .  A
C176        C181   1.453       .  S
C177        C178   1.408       .  A
C177        C184   1.451       .  S
C178        C179   1.415       .  A
C179        C180   1.411       .  A
C179        C182   1.452       .  S
C180        C183   1.451       .  S
C181        N188   1.157       .  T
C182        N187   1.157       .  T
C183        N185   1.158       .  T
C184        N186   1.157       .  T
C189        C190   1.411       .  A
C189        C194   1.413       .  A
C190        C191   1.412       .  A
C190        C195   1.450       .  S
C191        C192   1.412       .  A
C191        C198   1.448       .  S
C192        C193   1.411       .  A
C193        C194   1.416       .  A
C193        C196   1.449       .  S
C194       C1133   1.447   1_455  S
C195        N202   1.157       .  T
C196        N201   1.157       .  T
C197       C1130   1.447       .  S
C197        N199   1.157       .  T
C198        N200   1.156       .  T
C203        C204   1.422       .  A
C203        C208   1.417       .  A
C204        C205   1.412       .  A
C204        C209   1.448       .  S
C205        C206   1.407       .  A
C205        C212   1.452       .  S
C206        C207   1.409       .  A
C207        C208   1.415       .  A
C207        C210   1.448       .  S
C208        C211   1.449       .  S
C209        N216   1.156       .  T
C210        N215   1.156       .  T
C211       N1149   1.157       .  T
C212        N214   1.157       .  T
N213       C1147   1.157       .  T
C217        C218   1.415       .  A
C217        C222   1.409       .  A
C218        C219   1.412       .  A
C218        C223   1.450   1_455  S
C219        C220   1.419       .  A
C219        C226   1.452       .  S
C220        C221   1.424       .  A
C221        C222   1.410       .  A
C221        C224   1.453       .  S
C222        C225   1.452       .  S
C223        N230   1.157       .  T
C224        N229   1.158       .  T
C225        N227   1.157       .  T
C226        N228   1.158       .  T
C231        C232   1.412       .  A
C231        C236   1.409       .  A
C232        C233   1.407       .  A
C232       C1173   1.450       .  S
C233        C234   1.413       .  A
C233        C240   1.453       .  S
C234        C235   1.416       .  A
C235        C236   1.409       .  A
C235        C238   1.452       .  S
C236        C239   1.449       .  S
C237       C1168   1.450   1_455  S
C237        N244   1.157       .  T
C238        N243   1.157       .  T
C239        N241   1.157   1_556  T
C240        N242   1.157       .  T
C245        C246   1.407       .  A
C245        C250   1.412       .  A
C246        C247   1.405       .  A
C246        C251   1.451       .  S
C247        C248   1.415       .  A
C247        C254   1.449       .  S
C248        C249   1.417       .  A
C249        C250   1.410       .  A
C249        C252   1.451       .  S
C250        C253   1.452       .  S
C251        N258   1.158       .  T
C252        N257   1.157       .  T
C253        N255   1.157       .  T
C254        N256   1.157       .  T
C259        C260   1.409       .  A
C259        C264   1.405       .  A
C260        C261   1.411       .  A
C260        C265   1.449       .  S
C261        C262   1.416       .  A
C261        C268   1.449       .  S
C262        C263   1.422       .  A
C263        C264   1.409       .  A
C263        C266   1.448       .  S
C264        C267   1.453       .  S
C265        N272   1.157       .  T
C266        N271   1.156   1_554  T
C267        N269   1.157       .  T
C268        N270   1.157   1_455  T
C273        C274   1.416       .  A
C273        C278   1.413       .  A
C274        C275   1.411       .  A
C274        C279   1.452       .  S
C275        C276   1.410       .  A
C275        C282   1.449       .  S
C276        C277   1.412       .  A
C277        C278   1.409       .  A
C277        C280   1.450   1_455  S
C278        C281   1.452       .  S
C279        N286   1.158       .  T
C280        N285   1.157       .  T
C281        N283   1.157       .  T
C282        N284   1.157       .  T
C287        C288   1.421       .  A
C287        C292   1.425       .  A
C288        C289   1.410       .  A
C288        C293   1.449       .  S
C289        C290   1.410       .  A
C289        C296   1.452       .  S
C290        C291   1.413       .  A
C291        C292   1.410       .  A
C291        C762   1.454   1_545  S
C292        C295   1.451       .  S
C293        N300   1.157       .  T
C294        C759   1.453       .  S
C294        N299   1.157       .  T
C295        N297   1.157       .  T
C296        N298   1.157       .  T
C301        C302   1.422       .  A
C301        C306   1.424       .  A
C302        C303   1.415       .  A
C302        C307   1.451       .  S
C303        C304   1.414       .  A
C303        C310   1.451       .  S
C304        C305   1.408       .  A
C305        C306   1.409       .  A
C305        C308   1.453       .  S
C306        C309   1.449       .  S
C307        N314   1.158       .  T
C308        N313   1.157       .  T
C309        N311   1.156       .  T
C310        N312   1.157       .  T
C315        C316   1.411       .  A
C315        C320   1.414       .  A
C316        C317   1.411       .  A
C316        C321   1.448       .  S
C317        C318   1.410       .  A
C317        C324   1.448       .  S
C318        C319   1.409       .  A
C319        C320   1.411       .  A
C319        C322   1.449       .  S
C320        C323   1.449       .  S
C321       N1264   1.157       .  T
C322        N327   1.157       .  T
C323        N325   1.157   1_556  T
C324        N326   1.156       .  T
N328       C1257   1.157       .  T
C329        C330   1.421       .  A
C329        C334   1.414       .  A
C330        C331   1.418       .  A
C330        C335   1.450       .  S
C331        C332   1.414       .  A
C331        C338   1.450       .  S
C332        C333   1.413       .  A
C333        C334   1.407       .  A
C333        C336   1.452       .  S
C334        C337   1.449       .  S
C335        N342   1.157       .  T
C336        N341   1.158       .  T
C337        N339   1.157   1_545  T
C338        N340   1.157       .  T
C343        C344   1.414       .  A
C343        C348   1.410       .  A
C344        C345   1.415       .  A
C344        C349   1.450       .  S
C345        C346   1.421       .  A
C345        C352   1.451       .  S
C346        C347   1.425       .  A
C347        C348   1.413       .  A
C347        C350   1.452       .  S
C348        C351   1.451       .  S
C349        N356   1.157       .  T
C350        N355   1.157       .  T
C351        N353   1.157       .  T
C352        N354   1.158       .  T
C357        C358   1.413       .  A
C357        C362   1.412       .  A
C358        C359   1.412       .  A
C358        C363   1.449       .  S
C359        C360   1.412       .  A
C359        C366   1.450       .  S
C360        C361   1.413       .  A
C361        C362   1.413       .  A
C361        C364   1.449       .  S
C362        C365   1.449       .  S
C363        N370   1.157       .  T
C364        N369   1.157       .  T
C365        N367   1.157       .  T
C366        N368   1.157       .  T
C371        C372   1.418       .  A
C371        C376   1.422       .  A
C372        C373   1.415       .  A
C372        C377   1.451       .  S
C373        C374   1.415       .  A
C373        C380   1.450       .  S
C374        C375   1.415       .  A
C375        C376   1.414       .  A
C375        C846   1.452       .  S
C376        C379   1.450       .  S
C377        N384   1.157       .  T
C378        C843   1.452   1_545  S
C378        N383   1.157       .  T
C379        N381   1.157       .  T
C380        N382   1.157       .  T
C385        C386   1.412       .  A
C385        C390   1.415       .  A
C386        C387   1.413       .  A
C386        C391   1.445       .  S
C387        C388   1.410       .  A
C387        C394   1.450       .  S
C388        C389   1.412       .  A
C389        C390   1.414       .  A
C389        C392   1.449       .  S
C390        C393   1.451       .  S
C391        N398   1.156       .  T
C392        N397   1.157       .  T
C393        N395   1.157       .  T
C394        N396   1.157   1_554  T
C399        C400   1.409       .  A
C399        C404   1.411       .  A
C400        C401   1.415       .  A
C400        C405   1.452       .  S
C401        C402   1.421       .  A
C401        C408   1.449       .  S
C402        C403   1.416       .  A
C403        C404   1.412       .  A
C403        C406   1.449       .  S
C404        C407   1.450       .  S
C405        N412   1.157       .  T
C406        N411   1.157       .  T
C407        N409   1.157       .  T
C408        N410   1.157       .  T
C413        C414   1.418       .  A
C413        C418   1.416       .  A
C414        C415   1.411       .  A
C414        C419   1.452       .  S
C415        C416   1.410       .  A
C415        C422   1.450       .  S
C416        C417   1.410       .  A
C417        C418   1.413       .  A
C417        C420   1.451   1_545  S
C418        C421   1.448       .  S
C419        N426   1.157       .  T
C420        N893   1.157       .  T
C421        N423   1.156       .  T
C422        N424   1.157   1_556  T
N425        C888   1.157       .  T
C427        C428   1.410       .  A
C427        C432   1.410       .  A
C428        C429   1.412       .  A
C428        C433   1.448       .  S
C429        C430   1.412       .  A
C429        C904   1.449   1_545  S
C430        C431   1.410       .  A
C431        C432   1.409       .  A
C431        C434   1.450       .  S
C432        C435   1.448       .  S
C433        N440   1.157       .  T
C434        N439   1.157   1_556  T
C435        N437   1.156       .  T
C436        C897   1.449       .  S
C436        N438   1.157       .  T
C441        C442   1.407       .  A
C441        C446   1.412       .  A
C442        C443   1.406       .  A
C442        C447   1.448       .  S
C443        C444   1.418       .  A
C443        C450   1.451       .  S
C444        C445   1.418       .  A
C445        C446   1.418       .  A
C445        C448   1.446       .  S
C446        C449   1.451       .  S
C447        N454   1.157   1_554  T
C448        N453   1.156       .  T
C449        N451   1.157       .  T
C450        N452   1.158       .  T
C455        C456   1.409       .  A
C455        C460   1.410       .  A
C456        C457   1.408       .  A
C456        C461   1.449       .  S
C457        C458   1.412       .  A
C457        C464   1.450       .  S
C458        C459   1.414       .  A
C459        C460   1.412       .  A
C459        C462   1.450       .  S
C460        C463   1.450       .  S
C461        N468   1.157   1_554  T
C462        N467   1.157       .  T
C463        N933   1.157       .  T
C464        N466   1.157       .  T
N465        C931   1.157       .  T
C469        C470   1.419       .  A
C469        C923   1.489       .  S
C470        C471   1.404   1_564  A
C470        C909   1.497       .  S
C471        H476   1.084       .  S
C472        C473   1.416       .  A
C472        C884   1.494       .  S
C473        C474   1.401       .  A
C473        C898   1.489       .  S
C474        H475   1.084       .  S
O477       Ni485   1.913       .  S
O477        C487   1.278       .  A
O478       Ni485   1.910       .  S
O478        C488   1.279       .  A
O479       Ni485   1.936       .  S
O479        C489   1.285       .  A
O480       Ni485   1.932       .  S
O480        C490   1.286       .  A
O481       Ni486   1.917       .  S
O481        C490   1.280       .  A
O482       Ni486   1.923       .  S
O482        C489   1.281       .  A
O483       Ni486   1.939       .  S
O483        C488   1.286       .  A
O484       Ni486   1.932       .  S
O484        C487   1.284       .  A
Ni485      Ni486   2.384       .  S
C487        C867   1.486       .  S
C488        C912   1.500       .  S
C489        C853   1.495       .  S
C490        C839   1.506       .  S
O491       Ni499   1.920       .  S
O491        C501   1.279       .  A
O492       Ni499   1.923       .  S
O492        C502   1.281       .  A
O493       Ni499   1.931       .  S
O493        C503   1.284       .  A
O494       Ni499   1.928       .  S
O494        C504   1.284       .  A
O495       Ni500   1.916       .  S
O495        C504   1.281       .  A
O496       Ni500   1.915       .  S
O496        C503   1.280       .  A
O497       Ni500   1.924       .  S
O497        C502   1.282       .  A
O498       Ni500   1.923       .  S
O498        C501   1.282       .  A
Ni499      Ni500   2.385       .  S
C501        C895   1.479       .  S
C502        C828   1.486       .  S
C503        C800   1.489       .  S
C504        C814   1.509       .  S
O505       Ni513   1.912       .  S
O505        C515   1.280       .  A
O506       Ni513   1.912       .  S
O506        C516   1.279       .  A
O507       Ni513   1.926       .  S
O507        C517   1.283       .  A
O508       Ni513   1.926       .  S
O508        C518   1.284       .  A
O509       Ni514   1.907       .  S
O509        C518   1.279       .  A
O510       Ni514   1.916       .  S
O510        C517   1.279       .  A
O511       Ni514   1.932       .  S
O511        C516   1.285       .  A
O512       Ni514   1.927       .  S
O512        C515   1.284       .  A
Ni513      Ni514   2.382       .  S
C515        C769   1.505       .  S
C516        C881   1.495       .  S
C517        C786   1.481       .  S
C518        C755   1.505       .  S
O519       Ni527   1.923       .  S
O519        C529   1.282       .  A
O520       Ni527   1.918       .  S
O520        C530   1.282       .  A
O521       Ni527   1.911       .  S
O521        C531   1.279       .  A
O522       Ni527   1.916       .  S
O522        C532   1.280       .  A
O523       Ni528   1.916       .  S
O523        C532   1.281       .  A
O524       Ni528   1.917       .  S
O524        C531   1.281       .  A
O525       Ni528   1.912       .  S
O525        C530   1.280       .  A
O526       Ni528   1.916       .  S
O526        C529   1.280       .  A
Ni527      Ni528   2.392       .  S
C529        C926   1.482       .  S
C530        C741   1.485       .  S
C531        C713   1.474       .  S
C532        C727   1.477       .  S
C533        C534   1.411       .  A
C533       C1474   1.402       .  A
C533        C783   1.493       .  S
C534       C1471   1.397   1_556  A
C534        C699   1.485       .  S
C535       C1470   1.397   1_554  A
C535        C536   1.403   1_655  A
C535        H540   1.084       .  S
C536        C537   1.428       .  A
C536        C730   1.505       .  S
C537        C538   1.410   1_554  A
C537        C685   1.500       .  S
C538       C1469   1.402   1_455  A
C538        H539   1.084       .  S
C541        C542   1.428       .  A
C541        C546   1.407       .  A
C541        C671   1.512       .  S
C542        C543   1.410       .  A
C542        C772   1.498       .  S
C543       C1480   1.402       .  A
C543        H548   1.084       .  S
C544       C1479   1.402       .  A
C544        C545   1.412       .  A
C544        C657   1.498       .  S
C545       C1482   1.403       .  A
C545        C744   1.488       .  S
C546       C1481   1.403       .  A
C546        H547   1.083       .  S
O549       Ni557   1.924       .  S
O549        C559   1.283       .  A
O550       Ni557   1.927       .  S
O550        C560   1.285       .  A
O551       Ni557   1.922       .  S
O551        C561   1.280       .  A
O552       Ni557   1.924       .  S
O552        C562   1.280       .  A
O553       Ni558   1.929       .  S
O553        C562   1.283       .  A
O554       Ni558   1.928       .  S
O554        C561   1.283       .  A
O555       Ni558   1.907       .  S
O555        C560   1.278       .  A
O556       Ni558   1.903       .  S
O556        C559   1.278       .  A
Ni557      Ni558   2.383       .  S
C559        C643   1.495       .  S
C560        C688   1.501       .  S
C561        C632   1.486       .  S
C562        C660   1.488       .  S
O563       Ni571   1.906       .  S
O563        C573   1.279       .  A
O564       Ni571   1.909       .  S
O564        C574   1.279       .  A
O565       Ni571   1.925       .  S
O565        C575   1.283       .  A
O566       Ni571   1.926       .  S
O566        C576   1.283       .  A
O567       Ni572   1.919       .  S
O567        C576   1.280       .  A
O568       Ni572   1.920       .  S
O568        C575   1.281       .  A
O569       Ni572   1.919       .  S
O569        C574   1.282       .  A
O570       Ni572   1.916       .  S
O570        C573   1.282       .  A
Ni571      Ni572   2.391       .  S
C573        C702   1.480       .  S
C574        C618   1.481       .  S
C575        C674   1.485       .  S
C576        C601   1.484       .  S
C577        C578   1.414       .  A
C577        C582   1.403   1_554  A
C577        C856   1.496       .  S
C578        C579   1.406       .  A
C578        C629   1.493       .  S
C579        C580   1.408   1_554  A
C579        H584   1.084       .  S
C580        C581   1.424       .  A
C580        C811   1.505       .  S
C581        C582   1.408       .  A
C581        C604   1.501       .  S
C582        H583   1.084       .  S
C585        C586   1.427       .  A
C585        C590   1.404       .  A
C585        C646   1.493       .  S
C586        C587   1.408       .  A
C586        C870   1.510       .  S
C587        C588   1.405       .  A
C587        H592   1.084       .  S
C588        C589   1.413       .  A
C588        C615   1.486       .  S
C589        C590   1.396       .  A
C589        C825   1.495       .  S
C590        H591   1.084       .  S
C593        C594   1.421       .  A
C593        C842   1.508       .  S
C594        C716   1.498       .  S
C595        C596   1.406       .  A
C595        H600   1.082       .  S
C596        C597   1.425       .  A
C596        C797   1.512       .  S
C597        C598   1.405       .  A
C597        C758   1.500       .  S
C601        C602   1.410       .  A
C601        C606   1.412       .  A
C602        C603   1.413       .  A
C602        C607   1.449       .  S
C603        C604   1.416       .  A
C603        C610   1.449       .  S
C604        C605   1.415       .  A
C605        C606   1.411       .  A
C605        C608   1.451       .  S
C606        C609   1.451       .  S
C607        N614   1.157       .  T
C608        N613   1.157   1_556  T
C609        N611   1.157       .  T
C610        N612   1.157       .  T
C615        C616   1.412       .  A
C615        C620   1.408       .  A
C616        C617   1.410       .  A
C616        C621   1.449       .  S
C617        C618   1.412       .  A
C617        C624   1.451       .  S
C618        C619   1.414       .  A
C619        C620   1.408       .  A
C619        C622   1.451       .  S
C620        C623   1.449       .  S
C621        N628   1.157       .  T
C622        N627   1.157       .  T
C623        N625   1.157       .  T
C624        N626   1.157       .  T
C629        C630   1.411       .  A
C629        C634   1.412       .  A
C630        C631   1.414       .  A
C630        C635   1.449       .  S
C631        C632   1.413       .  A
C631        C638   1.447       .  S
C632        C633   1.410       .  A
C633        C634   1.411       .  A
C633        C636   1.448       .  S
C634        C637   1.449       .  S
C635        N642   1.157       .  T
C636        N641   1.156       .  T
C637        N639   1.157   1_554  T
C638        N640   1.156       .  T
C643        C644   1.422       .  A
C643        C648   1.418       .  A
C644        C645   1.407       .  A
C644        C649   1.453       .  S
C645        C646   1.408       .  A
C645        C652   1.451       .  S
C646        C647   1.415       .  A
C647        C648   1.411       .  A
C647        C650   1.452       .  S
C648        C651   1.452       .  S
C649        N656   1.157       .  T
C650        N655   1.157       .  T
C651        N653   1.158       .  T
C652        N654   1.157       .  T
C657        C658   1.411       .  A
C657        C662   1.413       .  A
C658        C659   1.412       .  A
C658        C663   1.450       .  S
C659        C660   1.412       .  A
C659        C666   1.448       .  S
C660        C661   1.411       .  A
C661        C662   1.416       .  A
C661        C664   1.449       .  S
C662       C1601   1.447   1_455  S
C663        N670   1.157       .  T
C664        N669   1.157       .  T
C665       C1598   1.447       .  S
C665        N667   1.157       .  T
C666        N668   1.156       .  T
C671        C672   1.422       .  A
C671        C676   1.418       .  A
C672        C673   1.412       .  A
C672        C677   1.448       .  S
C673        C674   1.407       .  A
C673        C680   1.452       .  S
C674        C675   1.409       .  A
C675        C676   1.415       .  A
C675        C678   1.448       .  S
C676        C679   1.449       .  S
C677        N684   1.156       .  T
C678        N683   1.156       .  T
C679       N1617   1.157       .  T
C680        N682   1.157       .  T
N681       C1615   1.157       .  T
C685        C686   1.415       .  A
C685        C690   1.409       .  A
C686        C687   1.412       .  A
C686        C691   1.450   1_455  S
C687        C688   1.419       .  A
C687        C694   1.452       .  S
C688        C689   1.424       .  A
C689        C690   1.410       .  A
C689        C692   1.453       .  S
C690        C693   1.452       .  S
C691        N698   1.157       .  T
C692        N697   1.158       .  T
C693        N695   1.157       .  T
C694        N696   1.158       .  T
C699        C700   1.412       .  A
C699        C704   1.409       .  A
C700        C701   1.407       .  A
C700       C1641   1.450       .  S
C701        C702   1.412       .  A
C701        C708   1.453       .  S
C702        C703   1.415       .  A
C703        C704   1.409       .  A
C703        C706   1.452       .  S
C704        C707   1.449       .  S
C705       C1636   1.450   1_455  S
C705        N712   1.157       .  T
C706        N711   1.157       .  T
C707        N709   1.157   1_556  T
C708        N710   1.157       .  T
C713        C714   1.407       .  A
C713        C718   1.412       .  A
C714        C715   1.405       .  A
C714        C719   1.451       .  S
C715        C716   1.415       .  A
C715        C722   1.449       .  S
C716        C717   1.417       .  A
C717        C718   1.411       .  A
C717        C720   1.451       .  S
C718        C721   1.451       .  S
C719        N726   1.158       .  T
C720        N725   1.157       .  T
C721        N723   1.157       .  T
C722        N724   1.157   1_565  T
C727        C728   1.409       .  A
C727        C732   1.405       .  A
C728        C729   1.411       .  A
C728        C733   1.449       .  S
C729        C730   1.416       .  A
C729        C736   1.449       .  S
C730        C731   1.422       .  A
C731        C732   1.409       .  A
C731        C734   1.448       .  S
C732        C735   1.452       .  S
C733        N740   1.157       .  T
C734        N739   1.156   1_554  T
C735        N737   1.157       .  T
C736        N738   1.157   1_455  T
C741        C742   1.416       .  A
C741        C746   1.413       .  A
C742        C743   1.411       .  A
C742        C747   1.452       .  S
C743        C744   1.409       .  A
C743        C750   1.449       .  S
C744        C745   1.412       .  A
C745        C746   1.409       .  A
C745        C748   1.450   1_455  S
C746        C749   1.452       .  S
C747        N754   1.158       .  T
C748        N753   1.157       .  T
C749        N751   1.157       .  T
C750        N752   1.157       .  T
C755        C756   1.421       .  A
C755        C760   1.425       .  A
C756        C757   1.410       .  A
C756        C761   1.449       .  S
C757        C758   1.410       .  A
C757        C764   1.452       .  S
C758        C759   1.413       .  A
C759        C760   1.411       .  A
C760        C763   1.451       .  S
C761        N768   1.157       .  T
C762        N767   1.157       .  T
C763        N765   1.157       .  T
C764        N766   1.157       .  T
C769        C770   1.422       .  A
C769        C774   1.424       .  A
C770        C771   1.415       .  A
C770        C775   1.451       .  S
C771        C772   1.414       .  A
C771        C778   1.451       .  S
C772        C773   1.407       .  A
C773        C774   1.409       .  A
C773        C776   1.453       .  S
C774        C777   1.449       .  S
C775        N782   1.158       .  T
C776        N781   1.157       .  T
C777        N779   1.156       .  T
C778        N780   1.157       .  T
C783        C784   1.411       .  A
C783        C788   1.413       .  A
C784        C785   1.411       .  A
C784        C789   1.448       .  S
C785        C786   1.410       .  A
C785        C792   1.448       .  S
C786        C787   1.409       .  A
C787        C788   1.412       .  A
C787        C790   1.449       .  S
C788        C791   1.449       .  S
C789       N1732   1.157       .  T
C790        N795   1.157       .  T
C791        N793   1.157   1_556  T
C792        N794   1.156       .  T
N796       C1725   1.157       .  T
C797        C798   1.421       .  A
C797        C802   1.414       .  A
C798        C799   1.418       .  A
C798        C803   1.450       .  S
C799        C800   1.414       .  A
C799        C806   1.450       .  S
C800        C801   1.413       .  A
C801        C802   1.407       .  A
C801        C804   1.451       .  S
C802        C805   1.449       .  S
C803        N810   1.157       .  T
C804        N809   1.158       .  T
C805        N807   1.157       .  T
C806        N808   1.157       .  T
C811        C812   1.414       .  A
C811        C816   1.410       .  A
C812        C813   1.415       .  A
C812        C817   1.450       .  S
C813        C814   1.421       .  A
C813        C820   1.451       .  S
C814        C815   1.425       .  A
C815        C816   1.414       .  A
C815        C818   1.452       .  S
C816        C819   1.451       .  S
C817        N824   1.156       .  T
C818        N823   1.157       .  T
C819        N821   1.157       .  T
C820        N822   1.158       .  T
C825        C826   1.413       .  A
C825        C830   1.412       .  A
C826        C827   1.412       .  A
C826        C831   1.449       .  S
C827        C828   1.412       .  A
C827        C834   1.450       .  S
C828        C829   1.413       .  A
C829        C830   1.413       .  A
C829        C832   1.449       .  S
C830        C833   1.449       .  S
C831        N838   1.157       .  T
C832        N837   1.157       .  T
C833        N835   1.157       .  T
C834        N836   1.157       .  T
C839        C840   1.418       .  A
C839        C844   1.421       .  A
C840        C841   1.415       .  A
C840        C845   1.451       .  S
C841        C842   1.414       .  A
C841        C848   1.450       .  S
C842        C843   1.415       .  A
C843        C844   1.414       .  A
C844        C847   1.450       .  S
C845        N852   1.157       .  T
C846        N851   1.157       .  T
C847        N849   1.157       .  T
C848        N850   1.157       .  T
C853        C854   1.413       .  A
C853        C858   1.416       .  A
C854        C855   1.413       .  A
C854        C859   1.444       .  S
C855        C856   1.409       .  A
C855        C862   1.450       .  S
C856        C857   1.412       .  A
C857        C858   1.416       .  A
C857        C860   1.449       .  S
C858        C861   1.451       .  S
C859        N866   1.155       .  T
C860        N865   1.157       .  T
C861        N863   1.157       .  T
C862        N864   1.157   1_554  T
C867        C868   1.409       .  A
C867        C872   1.411       .  A
C868        C869   1.414       .  A
C868        C873   1.452       .  S
C869        C870   1.421       .  A
C869        C876   1.448       .  S
C870        C871   1.416       .  A
C871        C872   1.412       .  A
C871        C874   1.449       .  S
C872        C875   1.449       .  S
C873        N880   1.157       .  T
C874        N879   1.157       .  T
C875        N877   1.157       .  T
C876        N878   1.156       .  T
C881        C882   1.418       .  A
C881        C886   1.416       .  A
C882        C883   1.411       .  A
C882        C887   1.452       .  S
C883        C884   1.410       .  A
C883        C890   1.449       .  S
C884        C885   1.410       .  A
C885        C886   1.413       .  A
C885        C888   1.451       .  S
C886        C889   1.448       .  S
C887        N894   1.157       .  T
C889        N891   1.156       .  T
C890        N892   1.157   1_556  T
C895        C896   1.410       .  A
C895        C900   1.410       .  A
C896        C897   1.411       .  A
C896        C901   1.448       .  S
C897        C898   1.411       .  A
C898        C899   1.410       .  A
C899        C900   1.409       .  A
C899        C902   1.450       .  S
C900        C903   1.448       .  S
C901        N908   1.157       .  T
C902        N907   1.157   1_556  T
C903        N905   1.156       .  T
C904        N906   1.157       .  T
C909        C910   1.406       .  A
C909        C914   1.412       .  A
C910        C911   1.404       .  A
C910        C915   1.448       .  S
C911        C912   1.417       .  A
C911        C918   1.450       .  S
C912        C913   1.419       .  A
C913        C914   1.419       .  A
C913        C916   1.446       .  S
C914        C917   1.450   1_565  S
C915        N922   1.157   1_554  T
C916        N921   1.156       .  T
C917        N919   1.157       .  T
C918        N920   1.158       .  T
C923        C924   1.409       .  A
C923        C928   1.411       .  A
C924        C925   1.408       .  A
C924        C929   1.449       .  S
C925        C926   1.412       .  A
C925        C932   1.450       .  S
C926        C927   1.414       .  A
C927        C928   1.412       .  A
C927        C930   1.450       .  S
C928        C931   1.450   1_565  S
C929        N936   1.157   1_554  T
C930        N935   1.157       .  T
C932        N934   1.157       .  T
C937        C938   1.419       .  A
C937       C1410   1.400   1_554  A
C937       C1391   1.489       .  S
C938        C939   1.404   1_554  A
C938       C1377   1.496       .  S
C939       C1408   1.404       .  A
C939        H944   1.084       .  S
C940       C1407   1.405       .  A
C940        C941   1.417       .  A
C940       C1352   1.494       .  S
C941        C942   1.401   1_545  A
C941       C1366   1.490       .  S
C942       C1405   1.401   1_556  A
C942        H943   1.084       .  S
O945       Ni953   1.913       .  S
O945        C955   1.278       .  A
O946       Ni953   1.909       .  S
O946        C956   1.279       .  A
O947       Ni953   1.936       .  S
O947        C957   1.285       .  A
O948       Ni953   1.933       .  S
O948        C958   1.286       .  A
O949       Ni954   1.916       .  S
O949        C958   1.280       .  A
O950       Ni954   1.922       .  S
O950        C957   1.280       .  A
O951       Ni954   1.940       .  S
O951        C956   1.286       .  A
O952       Ni954   1.933       .  S
O952        C955   1.285       .  A
Ni953      Ni954   2.384       .  S
C955       C1335   1.486       .  S
C956       C1380   1.498       .  S
C957       C1321   1.492       .  S
C958       C1307   1.507       .  S
O959       Ni967   1.921       .  S
O959        C969   1.279       .  A
O960       Ni967   1.924       .  S
O960        C970   1.282       .  A
O961       Ni967   1.932       .  S
O961        C971   1.284       .  A
O962       Ni967   1.929       .  S
O962        C972   1.284       .  A
O963       Ni968   1.915       .  S
O963        C972   1.281       .  A
O964       Ni968   1.914       .  S
O964        C971   1.280       .  A
O965       Ni968   1.924       .  S
O965        C970   1.282       .  A
O966       Ni968   1.924       .  S
O966        C969   1.283       .  A
Ni967      Ni968   2.385       .  S
C969       C1363   1.481       .  S
C970       C1296   1.487       .  S
C971       C1268   1.490       .  S
C972       C1282   1.508       .  S
O973       Ni981   1.912       .  S
O973        C983   1.280       .  A
O974       Ni981   1.912       .  S
O974        C984   1.280       .  A
O975       Ni981   1.926       .  S
O975        C985   1.283       .  A
O976       Ni981   1.926       .  S
O976        C986   1.284       .  A
O977       Ni982   1.906       .  S
O977        C986   1.278       .  A
O978       Ni982   1.915       .  S
O978        C985   1.278       .  A
O979       Ni982   1.933       .  S
O979        C984   1.285       .  A
O980       Ni982   1.928       .  S
O980        C983   1.284       .  A
Ni981      Ni982   2.382       .  S
C983       C1237   1.506       .  S
C984       C1349   1.496       .  S
C985       C1254   1.480       .  S
C986       C1223   1.504       .  S
O987       Ni995   1.923       .  S
O987        C997   1.282       .  A
O988       Ni995   1.919       .  S
O988        C998   1.282       .  A
O989       Ni995   1.909       .  S
O989        C999   1.279       .  A
O990       Ni995   1.914       .  S
O990       C1000   1.280       .  A
O991       Ni996   1.916       .  S
O991       C1000   1.281       .  A
O992       Ni996   1.917       .  S
O992        C999   1.281       .  A
O993       Ni996   1.912       .  S
O993        C998   1.280       .  A
O994       Ni996   1.916       .  S
O994        C997   1.280       .  A
Ni995      Ni996   2.392       .  S
C997       C1394   1.482       .  S
C998       C1209   1.485       .  S
C999       C1181   1.473       .  S
C1000      C1195   1.477       .  S
C1001      C1002   1.410       .  A
C1001      C1251   1.493       .  S
C1002      C1167   1.485       .  S
C1003      C1004   1.403       .  A
C1003      H1008   1.084       .  S
C1004      C1005   1.429       .  A
C1004      C1198   1.505       .  S
C1005      C1006   1.410   1_554  A
C1005      C1153   1.501       .  S
C1006      H1007   1.083       .  S
C1009      C1010   1.428       .  A
C1009      C1014   1.407   1_655  A
C1009      C1139   1.511       .  S
C1010      C1011   1.410   1_655  A
C1010      C1240   1.499       .  S
C1011      H1016   1.084   1_455  S
C1012      C1013   1.412       .  A
C1012      C1125   1.497       .  S
C1013      C1212   1.489       .  S
C1014      H1015   1.083       .  S
O1017     Ni1025   1.923       .  S
O1017      C1027   1.283       .  A
O1018     Ni1025   1.927       .  S
O1018      C1028   1.285       .  A
O1019     Ni1025   1.923       .  S
O1019      C1029   1.280       .  A
O1020     Ni1025   1.924       .  S
O1020      C1030   1.280       .  A
O1021     Ni1026   1.929       .  S
O1021      C1030   1.283       .  A
O1022     Ni1026   1.929       .  S
O1022      C1029   1.283       .  A
O1023     Ni1026   1.906       .  S
O1023      C1028   1.278       .  A
O1024     Ni1026   1.902       .  S
O1024      C1027   1.278       .  A
Ni1025    Ni1026   2.382       .  S
C1027      C1111   1.495       .  S
C1028      C1156   1.502       .  S
C1029      C1100   1.487       .  S
C1030      C1128   1.487       .  S
O1031     Ni1039   1.906       .  S
O1031      C1041   1.279       .  A
O1032     Ni1039   1.909       .  S
O1032      C1042   1.279       .  A
O1033     Ni1039   1.925       .  S
O1033      C1043   1.282       .  A
O1034     Ni1039   1.926       .  S
O1034      C1044   1.283       .  A
O1035     Ni1040   1.918       .  S
O1035      C1044   1.280       .  A
O1036     Ni1040   1.920       .  S
O1036      C1043   1.281       .  A
O1037     Ni1040   1.919       .  S
O1037      C1042   1.282       .  A
O1038     Ni1040   1.916       .  S
O1038      C1041   1.282       .  A
Ni1039    Ni1040   2.391       .  S
C1041      C1170   1.481       .  S
C1042      C1086   1.481       .  S
C1043      C1142   1.485       .  S
C1044      C1069   1.484       .  S
C1045      C1046   1.414       .  A
C1045      C1050   1.403   1_554  A
C1045      C1324   1.496       .  S
C1046      C1047   1.405       .  A
C1046      C1097   1.493       .  S
C1047      C1048   1.408   1_554  A
C1047      H1052   1.084       .  S
C1048      C1049   1.423       .  A
C1048      C1279   1.503       .  S
C1049      C1050   1.407       .  A
C1049      C1072   1.501       .  S
C1050      H1051   1.084       .  S
C1053      C1054   1.427       .  A
C1053      C1058   1.404       .  A
C1053      C1114   1.493       .  S
C1054      C1055   1.408       .  A
C1054      C1338   1.510       .  S
C1055      C1056   1.405       .  A
C1055      H1060   1.084       .  S
C1056      C1057   1.413       .  A
C1056      C1083   1.485       .  S
C1057      C1058   1.396       .  A
C1057      C1293   1.496       .  S
C1058      H1059   1.084       .  S
C1061      C1062   1.421       .  A
C1061      C1534   1.401       .  A
C1061      C1310   1.509       .  S
C1062      C1531   1.409       .  A
C1062      C1184   1.498       .  S
C1063      C1530   1.409       .  A
C1063      C1064   1.407   1_565  A
C1063      H1068   1.082       .  S
C1064      C1065   1.426       .  A
C1064      C1265   1.512       .  S
C1065      C1066   1.405       .  A
C1065      C1226   1.500       .  S
C1066      C1529   1.401   1_545  A
C1066      H1535   1.082       .  S
H1067      C1534   1.082       .  S
C1069      C1070   1.410       .  A
C1069      C1074   1.412       .  A
C1070      C1071   1.413       .  A
C1070      C1075   1.449       .  S
C1071      C1072   1.416       .  A
C1071      C1078   1.449       .  S
C1072      C1073   1.415       .  A
C1073      C1074   1.411       .  A
C1073      C1076   1.451       .  S
C1074      C1077   1.451       .  S
C1075      N1082   1.157       .  T
C1076      N1081   1.157   1_556  T
C1077      N1079   1.157       .  T
C1078      N1080   1.157       .  T
C1083      C1084   1.411       .  A
C1083      C1088   1.408       .  A
C1084      C1085   1.409       .  A
C1084      C1089   1.449       .  S
C1085      C1086   1.412       .  A
C1085      C1092   1.451       .  S
C1086      C1087   1.415       .  A
C1087      C1088   1.408       .  A
C1087      C1090   1.451       .  S
C1088      C1091   1.449       .  S
C1089      N1096   1.157       .  T
C1090      N1095   1.157       .  T
C1091      N1093   1.157       .  T
C1092      N1094   1.157       .  T
C1097      C1098   1.411       .  A
C1097      C1102   1.411       .  A
C1098      C1099   1.414       .  A
C1098      C1103   1.449       .  S
C1099      C1100   1.413       .  A
C1099      C1106   1.447       .  S
C1100      C1101   1.411       .  A
C1101      C1102   1.410       .  A
C1101      C1104   1.447       .  S
C1102      C1105   1.450       .  S
C1103      N1110   1.157       .  T
C1104      N1109   1.156       .  T
C1105      N1107   1.157   1_554  T
C1106      N1108   1.156       .  T
C1111      C1112   1.422       .  A
C1111      C1116   1.418       .  A
C1112      C1113   1.407       .  A
C1112      C1117   1.453       .  S
C1113      C1114   1.408       .  A
C1113      C1120   1.451       .  S
C1114      C1115   1.415       .  A
C1115      C1116   1.411       .  A
C1115      C1118   1.452       .  S
C1116      C1119   1.451       .  S
C1117      N1124   1.157       .  T
C1118      N1123   1.157       .  T
C1119      N1121   1.158       .  T
C1120      N1122   1.157       .  T
C1125      C1126   1.411       .  A
C1125      C1130   1.413       .  A
C1126      C1127   1.412       .  A
C1126      C1131   1.450       .  S
C1127      C1128   1.412       .  A
C1127      C1134   1.448       .  S
C1128      C1129   1.411       .  A
C1129      C1130   1.416       .  A
C1129      C1132   1.449       .  S
C1131      N1138   1.157       .  T
C1132      N1137   1.157       .  T
C1133      N1135   1.157       .  T
C1134      N1136   1.156       .  T
C1139      C1140   1.422       .  A
C1139      C1144   1.417       .  A
C1140      C1141   1.412       .  A
C1140      C1145   1.448       .  S
C1141      C1142   1.407       .  A
C1141      C1148   1.452       .  S
C1142      C1143   1.409       .  A
C1143      C1144   1.415       .  A
C1143      C1146   1.448       .  S
C1144      C1147   1.449   1_655  S
C1145      N1152   1.156       .  T
C1146      N1151   1.156       .  T
C1148      N1150   1.157       .  T
C1153      C1154   1.415       .  A
C1153      C1158   1.409       .  A
C1154      C1155   1.412       .  A
C1154      C1159   1.450       .  S
C1155      C1156   1.419       .  A
C1155      C1162   1.452       .  S
C1156      C1157   1.424       .  A
C1157      C1158   1.410       .  A
C1157      C1160   1.453       .  S
C1158      C1161   1.452       .  S
C1159      N1166   1.157       .  T
C1160      N1165   1.158       .  T
C1161      N1163   1.157       .  T
C1162      N1164   1.158       .  T
C1167      C1168   1.412       .  A
C1167      C1172   1.409       .  A
C1168      C1169   1.407       .  A
C1169      C1170   1.413       .  A
C1169      C1176   1.453       .  S
C1170      C1171   1.416       .  A
C1171      C1172   1.409       .  A
C1171      C1174   1.452       .  S
C1172      C1175   1.449       .  S
C1173      N1180   1.157       .  T
C1174      N1179   1.157       .  T
C1175      N1177   1.157   1_556  T
C1176      N1178   1.157       .  T
C1181      C1182   1.407       .  A
C1181      C1186   1.412       .  A
C1182      C1183   1.405       .  A
C1182      C1187   1.451       .  S
C1183      C1184   1.415       .  A
C1183      C1190   1.449       .  S
C1184      C1185   1.417       .  A
C1185      C1186   1.410       .  A
C1185      C1188   1.451       .  S
C1186      C1189   1.452       .  S
C1187      N1194   1.158       .  T
C1188      N1193   1.157       .  T
C1189      N1191   1.157       .  T
C1190      N1192   1.157       .  T
C1195      C1196   1.409       .  A
C1195      C1200   1.405       .  A
C1196      C1197   1.411       .  A
C1196      C1201   1.449       .  S
C1197      C1198   1.416       .  A
C1197      C1204   1.449       .  S
C1198      C1199   1.422       .  A
C1199      C1200   1.409       .  A
C1199      C1202   1.448       .  S
C1200      C1203   1.453       .  S
C1201      N1208   1.157       .  T
C1202      N1207   1.156   1_554  T
C1203      N1205   1.157       .  T
C1204      N1206   1.157       .  T
C1209      C1210   1.416       .  A
C1209      C1214   1.413       .  A
C1210      C1211   1.411       .  A
C1210      C1215   1.452       .  S
C1211      C1212   1.410       .  A
C1211      C1218   1.449       .  S
C1212      C1213   1.412       .  A
C1213      C1214   1.409       .  A
C1213      C1216   1.450       .  S
C1214      C1217   1.452       .  S
C1215      N1222   1.158       .  T
C1216      N1221   1.157       .  T
C1217      N1219   1.157       .  T
C1218      N1220   1.157       .  T
C1223      C1224   1.421       .  A
C1223      C1228   1.425       .  A
C1224      C1225   1.410       .  A
C1224      C1229   1.449       .  S
C1225      C1226   1.410       .  A
C1225      C1232   1.452       .  S
C1226      C1227   1.413       .  A
C1227      C1228   1.410       .  A
C1227      C1698   1.454   1_545  S
C1228      C1231   1.451       .  S
C1229      N1236   1.157       .  T
C1230      C1695   1.453       .  S
C1230      N1235   1.157       .  T
C1231      N1233   1.157       .  T
C1232      N1234   1.157       .  T
C1237      C1238   1.422       .  A
C1237      C1242   1.424       .  A
C1238      C1239   1.415       .  A
C1238      C1243   1.451       .  S
C1239      C1240   1.414       .  A
C1239      C1246   1.451   1_655  S
C1240      C1241   1.408       .  A
C1241      C1242   1.409       .  A
C1241      C1244   1.453       .  S
C1242      C1245   1.449       .  S
C1243      N1250   1.158       .  T
C1244      N1249   1.157       .  T
C1245      N1247   1.156       .  T
C1246      N1248   1.157       .  T
C1251      C1252   1.411       .  A
C1251      C1256   1.414       .  A
C1252      C1253   1.411       .  A
C1252      C1257   1.448   1_655  S
C1253      C1254   1.410       .  A
C1253      C1260   1.448       .  S
C1254      C1255   1.409       .  A
C1255      C1256   1.411       .  A
C1255      C1258   1.449       .  S
C1256      C1259   1.449       .  S
C1258      N1263   1.157       .  T
C1259      N1261   1.157   1_556  T
C1260      N1262   1.156       .  T
C1265      C1266   1.421       .  A
C1265      C1270   1.414       .  A
C1266      C1267   1.418       .  A
C1266      C1271   1.450       .  S
C1267      C1268   1.414       .  A
C1267      C1274   1.450       .  S
C1268      C1269   1.413       .  A
C1269      C1270   1.407       .  A
C1269      C1272   1.452       .  S
C1270      C1273   1.449       .  S
C1271      N1278   1.157       .  T
C1272      N1277   1.158       .  T
C1273      N1275   1.157   1_545  T
C1274      N1276   1.157       .  T
C1279      C1280   1.414       .  A
C1279      C1284   1.410       .  A
C1280      C1281   1.415       .  A
C1280      C1285   1.450       .  S
C1281      C1282   1.421       .  A
C1281      C1288   1.451       .  S
C1282      C1283   1.425       .  A
C1283      C1284   1.413       .  A
C1283      C1286   1.452       .  S
C1284      C1287   1.451       .  S
C1285      N1292   1.157       .  T
C1286      N1291   1.157       .  T
C1287      N1289   1.157       .  T
C1288      N1290   1.158       .  T
C1293      C1294   1.413       .  A
C1293      C1298   1.412       .  A
C1294      C1295   1.412       .  A
C1294      C1299   1.449       .  S
C1295      C1296   1.412       .  A
C1295      C1302   1.450       .  S
C1296      C1297   1.413       .  A
C1297      C1298   1.413       .  A
C1297      C1300   1.449       .  S
C1298      C1301   1.449       .  S
C1299      N1306   1.157       .  T
C1300      N1305   1.157       .  T
C1301      N1303   1.157       .  T
C1302      N1304   1.157       .  T
C1307      C1308   1.418       .  A
C1307      C1312   1.422       .  A
C1308      C1309   1.415       .  A
C1308      C1313   1.451       .  S
C1309      C1310   1.415       .  A
C1309      C1316   1.450       .  S
C1310      C1311   1.415       .  A
C1311      C1312   1.414       .  A
C1311      C1782   1.452       .  S
C1312      C1315   1.450       .  S
C1313      N1320   1.157       .  T
C1314      C1779   1.452   1_545  S
C1314      N1319   1.157       .  T
C1315      N1317   1.157       .  T
C1316      N1318   1.157       .  T
C1321      C1322   1.412       .  A
C1321      C1326   1.415       .  A
C1322      C1323   1.413       .  A
C1322      C1327   1.445       .  S
C1323      C1324   1.410       .  A
C1323      C1330   1.450       .  S
C1324      C1325   1.412       .  A
C1325      C1326   1.414       .  A
C1325      C1328   1.449       .  S
C1326      C1329   1.451       .  S
C1327      N1334   1.156       .  T
C1328      N1333   1.157       .  T
C1329      N1331   1.157       .  T
C1330      N1332   1.157   1_554  T
C1335      C1336   1.409       .  A
C1335      C1340   1.411       .  A
C1336      C1337   1.415       .  A
C1336      C1341   1.452       .  S
C1337      C1338   1.421       .  A
C1337      C1344   1.449       .  S
C1338      C1339   1.416       .  A
C1339      C1340   1.412       .  A
C1339      C1342   1.449       .  S
C1340      C1343   1.450       .  S
C1341      N1348   1.157       .  T
C1342      N1347   1.157       .  T
C1343      N1345   1.157       .  T
C1344      N1346   1.157       .  T
C1349      C1350   1.418       .  A
C1349      C1354   1.416       .  A
C1350      C1351   1.411       .  A
C1350      C1355   1.452       .  S
C1351      C1352   1.410       .  A
C1351      C1358   1.450       .  S
C1352      C1353   1.410       .  A
C1353      C1354   1.413       .  A
C1353      C1356   1.451   1_545  S
C1354      C1357   1.448       .  S
C1355      N1362   1.157       .  T
C1356      N1829   1.157       .  T
C1357      N1359   1.156       .  T
C1358      N1360   1.157   1_556  T
N1361      C1824   1.157       .  T
C1363      C1364   1.410       .  A
C1363      C1368   1.410       .  A
C1364      C1365   1.412       .  A
C1364      C1369   1.448       .  S
C1365      C1366   1.412       .  A
C1365      C1840   1.449   1_545  S
C1366      C1367   1.410       .  A
C1367      C1368   1.409       .  A
C1367      C1370   1.450       .  S
C1368      C1371   1.448       .  S
C1369      N1376   1.157       .  T
C1370      N1375   1.157   1_556  T
C1371      N1373   1.156       .  T
C1372      C1833   1.449       .  S
C1372      N1374   1.157       .  T
C1377      C1378   1.407       .  A
C1377      C1382   1.412       .  A
C1378      C1379   1.406       .  A
C1378      C1383   1.448       .  S
C1379      C1380   1.418       .  A
C1379      C1386   1.451       .  S
C1380      C1381   1.418       .  A
C1381      C1382   1.418       .  A
C1381      C1384   1.446       .  S
C1382      C1385   1.451       .  S
C1383      N1390   1.157   1_554  T
C1384      N1389   1.156       .  T
C1385      N1387   1.157       .  T
C1386      N1388   1.158       .  T
C1391      C1392   1.409       .  A
C1391      C1396   1.410       .  A
C1392      C1393   1.408       .  A
C1392      C1397   1.449       .  S
C1393      C1394   1.412       .  A
C1393      C1400   1.450       .  S
C1394      C1395   1.414       .  A
C1395      C1396   1.412       .  A
C1395      C1398   1.450       .  S
C1396      C1399   1.450       .  S
C1397      N1404   1.157   1_554  T
C1398      N1403   1.157       .  T
C1399      N1869   1.157       .  T
C1400      N1402   1.157       .  T
N1401      C1867   1.157       .  T
C1405      C1406   1.419       .  A
C1405      C1859   1.489       .  S
C1406      C1407   1.404   1_564  A
C1406      C1845   1.497       .  S
C1407      H1412   1.084       .  S
C1408      C1409   1.416       .  A
C1408      C1820   1.494       .  S
C1409      C1410   1.401       .  A
C1409      C1834   1.489       .  S
C1410      H1411   1.084       .  S
O1413     Ni1421   1.913       .  S
O1413      C1423   1.278       .  A
O1414     Ni1421   1.910       .  S
O1414      C1424   1.279       .  A
O1415     Ni1421   1.936       .  S
O1415      C1425   1.285       .  A
O1416     Ni1421   1.932       .  S
O1416      C1426   1.286       .  A
O1417     Ni1422   1.917       .  S
O1417      C1426   1.280       .  A
O1418     Ni1422   1.923       .  S
O1418      C1425   1.281       .  A
O1419     Ni1422   1.939       .  S
O1419      C1424   1.286       .  A
O1420     Ni1422   1.932       .  S
O1420      C1423   1.284       .  A
Ni1421    Ni1422   2.384       .  S
C1423      C1803   1.486       .  S
C1424      C1848   1.500       .  S
C1425      C1789   1.495       .  S
C1426      C1775   1.506       .  S
O1427     Ni1435   1.920       .  S
O1427      C1437   1.279       .  A
O1428     Ni1435   1.923       .  S
O1428      C1438   1.281       .  A
O1429     Ni1435   1.931       .  S
O1429      C1439   1.284       .  A
O1430     Ni1435   1.928       .  S
O1430      C1440   1.284       .  A
O1431     Ni1436   1.916       .  S
O1431      C1440   1.281       .  A
O1432     Ni1436   1.915       .  S
O1432      C1439   1.280       .  A
O1433     Ni1436   1.924       .  S
O1433      C1438   1.282       .  A
O1434     Ni1436   1.923       .  S
O1434      C1437   1.282       .  A
Ni1435    Ni1436   2.385       .  S
C1437      C1831   1.479       .  S
C1438      C1764   1.486       .  S
C1439      C1736   1.489       .  S
C1440      C1750   1.509       .  S
O1441     Ni1449   1.912       .  S
O1441      C1451   1.280       .  A
O1442     Ni1449   1.912       .  S
O1442      C1452   1.279       .  A
O1443     Ni1449   1.926       .  S
O1443      C1453   1.283       .  A
O1444     Ni1449   1.926       .  S
O1444      C1454   1.284       .  A
O1445     Ni1450   1.907       .  S
O1445      C1454   1.279       .  A
O1446     Ni1450   1.916       .  S
O1446      C1453   1.279       .  A
O1447     Ni1450   1.932       .  S
O1447      C1452   1.285       .  A
O1448     Ni1450   1.927       .  S
O1448      C1451   1.284       .  A
Ni1449    Ni1450   2.382       .  S
C1451      C1705   1.505       .  S
C1452      C1817   1.495       .  S
C1453      C1722   1.481       .  S
C1454      C1691   1.505       .  S
O1455     Ni1463   1.923       .  S
O1455      C1465   1.282       .  A
O1456     Ni1463   1.918       .  S
O1456      C1466   1.282       .  A
O1457     Ni1463   1.911       .  S
O1457      C1467   1.279       .  A
O1458     Ni1463   1.916       .  S
O1458      C1468   1.280       .  A
O1459     Ni1464   1.916       .  S
O1459      C1468   1.281       .  A
O1460     Ni1464   1.917       .  S
O1460      C1467   1.281       .  A
O1461     Ni1464   1.912       .  S
O1461      C1466   1.280       .  A
O1462     Ni1464   1.916       .  S
O1462      C1465   1.280       .  A
Ni1463    Ni1464   2.392       .  S
C1465      C1862   1.482       .  S
C1466      C1677   1.485       .  S
C1467      C1649   1.474       .  S
C1468      C1663   1.477       .  S
C1469      C1470   1.411       .  A
C1469      C1719   1.493       .  S
C1470      C1635   1.485       .  S
C1471      C1472   1.403       .  A
C1471      H1476   1.084       .  S
C1472      C1473   1.428       .  A
C1472      C1666   1.505       .  S
C1473      C1474   1.410   1_554  A
C1473      C1621   1.500       .  S
C1474      H1475   1.083       .  S
C1477      C1478   1.428       .  A
C1477      C1482   1.407   1_655  A
C1477      C1607   1.512       .  S
C1478      C1479   1.410   1_655  A
C1478      C1708   1.498       .  S
C1479      H1484   1.084   1_455  S
C1480      C1481   1.412       .  A
C1480      C1593   1.498       .  S
C1481      C1680   1.488       .  S
C1482      H1483   1.083       .  S
O1485     Ni1493   1.924       .  S
O1485      C1495   1.283       .  A
O1486     Ni1493   1.927       .  S
O1486      C1496   1.285       .  A
O1487     Ni1493   1.922       .  S
O1487      C1497   1.280       .  A
O1488     Ni1493   1.924       .  S
O1488      C1498   1.280       .  A
O1489     Ni1494   1.929       .  S
O1489      C1498   1.283       .  A
O1490     Ni1494   1.928       .  S
O1490      C1497   1.283       .  A
O1491     Ni1494   1.907       .  S
O1491      C1496   1.278       .  A
O1492     Ni1494   1.903       .  S
O1492      C1495   1.278       .  A
Ni1493    Ni1494   2.383       .  S
C1495      C1579   1.495       .  S
C1496      C1624   1.501       .  S
C1497      C1568   1.486       .  S
C1498      C1596   1.488       .  S
O1499     Ni1507   1.906       .  S
O1499      C1509   1.279       .  A
O1500     Ni1507   1.909       .  S
O1500      C1510   1.279       .  A
O1501     Ni1507   1.925       .  S
O1501      C1511   1.283       .  A
O1502     Ni1507   1.926       .  S
O1502      C1512   1.283       .  A
O1503     Ni1508   1.919       .  S
O1503      C1512   1.280       .  A
O1504     Ni1508   1.920       .  S
O1504      C1511   1.281       .  A
O1505     Ni1508   1.919       .  S
O1505      C1510   1.282       .  A
O1506     Ni1508   1.916       .  S
O1506      C1509   1.282       .  A
Ni1507    Ni1508   2.391       .  S
C1509      C1638   1.480       .  S
C1510      C1554   1.481       .  S
C1511      C1610   1.485       .  S
C1512      C1537   1.484       .  S
C1513      C1514   1.414       .  A
C1513      C1518   1.403   1_554  A
C1513      C1792   1.496       .  S
C1514      C1515   1.406       .  A
C1514      C1565   1.493       .  S
C1515      C1516   1.408   1_554  A
C1515      H1520   1.084       .  S
C1516      C1517   1.424       .  A
C1516      C1747   1.505       .  S
C1517      C1518   1.408       .  A
C1517      C1540   1.501       .  S
C1518      H1519   1.084       .  S
C1521      C1522   1.427       .  A
C1521      C1526   1.404       .  A
C1521      C1582   1.493       .  S
C1522      C1523   1.408       .  A
C1522      C1806   1.510       .  S
C1523      C1524   1.405       .  A
C1523      H1528   1.084       .  S
C1524      C1525   1.413       .  A
C1524      C1551   1.486       .  S
C1525      C1526   1.396       .  A
C1525      C1761   1.495       .  S
C1526      H1527   1.084       .  S
C1529      C1530   1.421       .  A
C1529      C1778   1.508       .  S
C1530      C1652   1.498       .  S
C1531      C1532   1.406       .  A
C1531      H1536   1.082       .  S
C1532      C1533   1.425       .  A
C1532      C1733   1.512       .  S
C1533      C1534   1.405       .  A
C1533      C1694   1.500       .  S
C1537      C1538   1.410       .  A
C1537      C1542   1.412       .  A
C1538      C1539   1.413       .  A
C1538      C1543   1.449       .  S
C1539      C1540   1.416       .  A
C1539      C1546   1.449       .  S
C1540      C1541   1.415       .  A
C1541      C1542   1.411       .  A
C1541      C1544   1.451       .  S
C1542      C1545   1.451       .  S
C1543      N1550   1.157       .  T
C1544      N1549   1.157   1_556  T
C1545      N1547   1.157       .  T
C1546      N1548   1.157       .  T
C1551      C1552   1.412       .  A
C1551      C1556   1.408       .  A
C1552      C1553   1.410       .  A
C1552      C1557   1.449       .  S
C1553      C1554   1.412       .  A
C1553      C1560   1.451       .  S
C1554      C1555   1.414       .  A
C1555      C1556   1.408       .  A
C1555      C1558   1.451       .  S
C1556      C1559   1.449       .  S
C1557      N1564   1.157       .  T
C1558      N1563   1.157       .  T
C1559      N1561   1.157       .  T
C1560      N1562   1.157       .  T
C1565      C1566   1.411       .  A
C1565      C1570   1.412       .  A
C1566      C1567   1.414       .  A
C1566      C1571   1.449       .  S
C1567      C1568   1.413       .  A
C1567      C1574   1.447       .  S
C1568      C1569   1.410       .  A
C1569      C1570   1.411       .  A
C1569      C1572   1.448       .  S
C1570      C1573   1.449       .  S
C1571      N1578   1.157       .  T
C1572      N1577   1.156       .  T
C1573      N1575   1.157   1_554  T
C1574      N1576   1.156       .  T
C1579      C1580   1.422       .  A
C1579      C1584   1.418       .  A
C1580      C1581   1.407       .  A
C1580      C1585   1.453       .  S
C1581      C1582   1.408       .  A
C1581      C1588   1.451       .  S
C1582      C1583   1.415       .  A
C1583      C1584   1.411       .  A
C1583      C1586   1.452       .  S
C1584      C1587   1.452       .  S
C1585      N1592   1.157       .  T
C1586      N1591   1.157       .  T
C1587      N1589   1.158       .  T
C1588      N1590   1.157       .  T
C1593      C1594   1.411       .  A
C1593      C1598   1.413       .  A
C1594      C1595   1.412       .  A
C1594      C1599   1.450       .  S
C1595      C1596   1.412       .  A
C1595      C1602   1.448       .  S
C1596      C1597   1.411       .  A
C1597      C1598   1.416       .  A
C1597      C1600   1.449       .  S
C1599      N1606   1.157       .  T
C1600      N1605   1.157       .  T
C1601      N1603   1.157       .  T
C1602      N1604   1.156       .  T
C1607      C1608   1.422       .  A
C1607      C1612   1.418       .  A
C1608      C1609   1.412       .  A
C1608      C1613   1.448       .  S
C1609      C1610   1.407       .  A
C1609      C1616   1.452       .  S
C1610      C1611   1.409       .  A
C1611      C1612   1.415       .  A
C1611      C1614   1.448       .  S
C1612      C1615   1.449   1_655  S
C1613      N1620   1.156       .  T
C1614      N1619   1.156       .  T
C1616      N1618   1.157       .  T
C1621      C1622   1.415       .  A
C1621      C1626   1.409       .  A
C1622      C1623   1.412       .  A
C1622      C1627   1.450       .  S
C1623      C1624   1.419       .  A
C1623      C1630   1.452       .  S
C1624      C1625   1.424       .  A
C1625      C1626   1.410       .  A
C1625      C1628   1.453       .  S
C1626      C1629   1.452       .  S
C1627      N1634   1.157       .  T
C1628      N1633   1.158       .  T
C1629      N1631   1.157       .  T
C1630      N1632   1.158       .  T
C1635      C1636   1.412       .  A
C1635      C1640   1.409       .  A
C1636      C1637   1.407       .  A
C1637      C1638   1.412       .  A
C1637      C1644   1.453       .  S
C1638      C1639   1.415       .  A
C1639      C1640   1.409       .  A
C1639      C1642   1.452       .  S
C1640      C1643   1.449       .  S
C1641      N1648   1.157       .  T
C1642      N1647   1.157       .  T
C1643      N1645   1.157   1_556  T
C1644      N1646   1.157       .  T
C1649      C1650   1.407       .  A
C1649      C1654   1.412       .  A
C1650      C1651   1.405       .  A
C1650      C1655   1.451       .  S
C1651      C1652   1.415       .  A
C1651      C1658   1.449       .  S
C1652      C1653   1.417       .  A
C1653      C1654   1.411       .  A
C1653      C1656   1.451       .  S
C1654      C1657   1.451       .  S
C1655      N1662   1.158       .  T
C1656      N1661   1.157       .  T
C1657      N1659   1.157       .  T
C1658      N1660   1.157   1_565  T
C1663      C1664   1.409       .  A
C1663      C1668   1.405       .  A
C1664      C1665   1.411       .  A
C1664      C1669   1.449       .  S
C1665      C1666   1.416       .  A
C1665      C1672   1.449       .  S
C1666      C1667   1.422       .  A
C1667      C1668   1.409       .  A
C1667      C1670   1.448       .  S
C1668      C1671   1.452       .  S
C1669      N1676   1.157       .  T
C1670      N1675   1.156   1_554  T
C1671      N1673   1.157       .  T
C1672      N1674   1.157       .  T
C1677      C1678   1.416       .  A
C1677      C1682   1.413       .  A
C1678      C1679   1.411       .  A
C1678      C1683   1.452       .  S
C1679      C1680   1.409       .  A
C1679      C1686   1.449       .  S
C1680      C1681   1.412       .  A
C1681      C1682   1.409       .  A
C1681      C1684   1.450       .  S
C1682      C1685   1.452       .  S
C1683      N1690   1.158       .  T
C1684      N1689   1.157       .  T
C1685      N1687   1.157       .  T
C1686      N1688   1.157       .  T
C1691      C1692   1.421       .  A
C1691      C1696   1.425       .  A
C1692      C1693   1.410       .  A
C1692      C1697   1.449       .  S
C1693      C1694   1.410       .  A
C1693      C1700   1.452       .  S
C1694      C1695   1.413       .  A
C1695      C1696   1.411       .  A
C1696      C1699   1.451       .  S
C1697      N1704   1.157       .  T
C1698      N1703   1.157       .  T
C1699      N1701   1.157       .  T
C1700      N1702   1.157       .  T
C1705      C1706   1.422       .  A
C1705      C1710   1.424       .  A
C1706      C1707   1.415       .  A
C1706      C1711   1.451       .  S
C1707      C1708   1.414       .  A
C1707      C1714   1.451   1_655  S
C1708      C1709   1.407       .  A
C1709      C1710   1.409       .  A
C1709      C1712   1.453       .  S
C1710      C1713   1.449       .  S
C1711      N1718   1.158       .  T
C1712      N1717   1.157       .  T
C1713      N1715   1.156       .  T
C1714      N1716   1.157       .  T
C1719      C1720   1.411       .  A
C1719      C1724   1.413       .  A
C1720      C1721   1.411       .  A
C1720      C1725   1.448   1_655  S
C1721      C1722   1.410       .  A
C1721      C1728   1.448       .  S
C1722      C1723   1.409       .  A
C1723      C1724   1.412       .  A
C1723      C1726   1.449       .  S
C1724      C1727   1.449       .  S
C1726      N1731   1.157       .  T
C1727      N1729   1.157   1_556  T
C1728      N1730   1.156       .  T
C1733      C1734   1.421       .  A
C1733      C1738   1.414       .  A
C1734      C1735   1.418       .  A
C1734      C1739   1.450       .  S
C1735      C1736   1.414       .  A
C1735      C1742   1.450       .  S
C1736      C1737   1.413       .  A
C1737      C1738   1.407       .  A
C1737      C1740   1.451       .  S
C1738      C1741   1.449       .  S
C1739      N1746   1.157       .  T
C1740      N1745   1.158       .  T
C1741      N1743   1.157       .  T
C1742      N1744   1.157       .  T
C1747      C1748   1.414       .  A
C1747      C1752   1.410       .  A
C1748      C1749   1.415       .  A
C1748      C1753   1.450       .  S
C1749      C1750   1.421       .  A
C1749      C1756   1.451       .  S
C1750      C1751   1.425       .  A
C1751      C1752   1.414       .  A
C1751      C1754   1.452       .  S
C1752      C1755   1.451       .  S
C1753      N1760   1.156       .  T
C1754      N1759   1.157       .  T
C1755      N1757   1.157       .  T
C1756      N1758   1.158       .  T
C1761      C1762   1.413       .  A
C1761      C1766   1.412       .  A
C1762      C1763   1.412       .  A
C1762      C1767   1.449       .  S
C1763      C1764   1.412       .  A
C1763      C1770   1.450       .  S
C1764      C1765   1.413       .  A
C1765      C1766   1.413       .  A
C1765      C1768   1.449       .  S
C1766      C1769   1.449       .  S
C1767      N1774   1.157       .  T
C1768      N1773   1.157       .  T
C1769      N1771   1.157       .  T
C1770      N1772   1.157       .  T
C1775      C1776   1.418       .  A
C1775      C1780   1.421       .  A
C1776      C1777   1.415       .  A
C1776      C1781   1.451       .  S
C1777      C1778   1.414       .  A
C1777      C1784   1.450       .  S
C1778      C1779   1.415       .  A
C1779      C1780   1.414       .  A
C1780      C1783   1.450       .  S
C1781      N1788   1.157       .  T
C1782      N1787   1.157       .  T
C1783      N1785   1.157       .  T
C1784      N1786   1.157       .  T
C1789      C1790   1.413       .  A
C1789      C1794   1.416       .  A
C1790      C1791   1.413       .  A
C1790      C1795   1.444       .  S
C1791      C1792   1.409       .  A
C1791      C1798   1.450       .  S
C1792      C1793   1.412       .  A
C1793      C1794   1.416       .  A
C1793      C1796   1.449       .  S
C1794      C1797   1.451       .  S
C1795      N1802   1.155       .  T
C1796      N1801   1.157       .  T
C1797      N1799   1.157       .  T
C1798      N1800   1.157   1_554  T
C1803      C1804   1.409       .  A
C1803      C1808   1.411       .  A
C1804      C1805   1.414       .  A
C1804      C1809   1.452       .  S
C1805      C1806   1.421       .  A
C1805      C1812   1.448       .  S
C1806      C1807   1.416       .  A
C1807      C1808   1.412       .  A
C1807      C1810   1.449       .  S
C1808      C1811   1.449       .  S
C1809      N1816   1.157       .  T
C1810      N1815   1.157       .  T
C1811      N1813   1.157       .  T
C1812      N1814   1.156       .  T
C1817      C1818   1.418       .  A
C1817      C1822   1.416       .  A
C1818      C1819   1.411       .  A
C1818      C1823   1.452       .  S
C1819      C1820   1.410       .  A
C1819      C1826   1.449       .  S
C1820      C1821   1.410       .  A
C1821      C1822   1.413       .  A
C1821      C1824   1.451       .  S
C1822      C1825   1.448       .  S
C1823      N1830   1.157       .  T
C1825      N1827   1.156       .  T
C1826      N1828   1.157   1_556  T
C1831      C1832   1.410       .  A
C1831      C1836   1.410       .  A
C1832      C1833   1.411       .  A
C1832      C1837   1.448       .  S
C1833      C1834   1.411       .  A
C1834      C1835   1.410       .  A
C1835      C1836   1.409       .  A
C1835      C1838   1.450       .  S
C1836      C1839   1.448       .  S
C1837      N1844   1.157       .  T
C1838      N1843   1.157   1_556  T
C1839      N1841   1.156       .  T
C1840      N1842   1.157       .  T
C1845      C1846   1.406       .  A
C1845      C1850   1.412       .  A
C1846      C1847   1.404       .  A
C1846      C1851   1.448       .  S
C1847      C1848   1.417       .  A
C1847      C1854   1.450       .  S
C1848      C1849   1.419       .  A
C1849      C1850   1.419       .  A
C1849      C1852   1.446       .  S
C1850      C1853   1.450   1_565  S
C1851      N1858   1.157   1_554  T
C1852      N1857   1.156       .  T
C1853      N1855   1.157       .  T
C1854      N1856   1.158       .  T
C1859      C1860   1.409       .  A
C1859      C1864   1.411       .  A
C1860      C1861   1.408       .  A
C1860      C1865   1.449       .  S
C1861      C1862   1.412       .  A
C1861      C1868   1.450       .  S
C1862      C1863   1.414       .  A
C1863      C1864   1.412       .  A
C1863      C1866   1.450       .  S
C1864      C1867   1.450   1_565  S
C1865      N1872   1.157   1_554  T
C1866      N1871   1.157       .  T
C1868      N1870   1.157       .  T
