geometry optimzed in LAMMPS
_audit_creation_date              2020-11-30 
_audit_creation_method            'lammps2cif' 
_symmetry_space_group_name_H-M    'P1' 
_symmetry_Int_Tables_number       1 
_symmetry_cell_setting            triclinic 
loop_ 
_symmetry_equiv_pos_as_xyz 
  x,y,z 
_cell_length_a                    66.53280727 
_cell_length_b                    66.33075393880547 
_cell_length_c                    43.281145206415445 
_cell_angle_alpha                 89.94303612455859 
_cell_angle_beta                  90.22258076445846 
_cell_angle_gamma                 89.8265646263827 
loop_ 
_atom_site_label 
_atom_site_type_symbol 
_atom_site_fract_x 
_atom_site_fract_y 
_atom_site_fract_z 
_atom_site_charge 
C1          C  0.86892095  0.73200818  0.46375131     0.86600
C2          C  0.85225133  0.74792359  0.46632996    -0.53600
C3          C  0.85357997  0.76040659  0.99140793     0.09500
C4          C  0.87304700  0.75646732  0.01084860     0.20500
C5          C  0.88848170  0.74386050  0.46364558    -0.54300
C6          C  0.89079075  0.75689470  0.98756743     0.09600
C7          C  0.86912630  0.72139100  0.49551343    -0.53900
C8          C  0.87172497  0.73410057  0.01997402     0.10200
H9          H  0.84066820  0.74933086  0.44882147     0.14700
H10         H  0.87511631  0.76658474  0.03098806     0.00500
H11         H  0.89978149  0.74201930  0.44578317     0.15000
H12         H  0.86880386  0.70531352  0.99934183     0.14800
O13         O  0.90325483  0.63518788  0.20958838    -0.74300
O14         O  0.90645482  0.59356660  0.27121958    -0.74300
O15         O  0.90695872  0.59430055  0.20853400    -0.74400
O16         O  0.90243186  0.63432200  0.27186344    -0.74400
O17         O  0.86920248  0.63104419  0.27060160    -0.74400
O18         O  0.87368876  0.59153797  0.20761608    -0.74300
O19         O  0.87317022  0.59046063  0.26998194    -0.74300
O20         O  0.86993182  0.63207119  0.20847465    -0.74400
Ni21       Ni  0.90599297  0.61443232  0.24031817     1.25400
Ni22       Ni  0.87034534  0.61115392  0.23912211     1.25400
C23         C  0.88603336  0.64072716  0.19924573     0.87900
C24         C  0.89033870  0.58505833  0.28075143     0.87800
C25         C  0.89093013  0.58619104  0.19770547     0.87800
C26         C  0.88498975  0.63938906  0.28157645     0.88000
C27         C  0.86723347  0.17226243  0.02249244     0.86600
C28         C  0.85140355  0.15561167  0.02230024    -0.53600
C29         C  0.85247585  0.14245837  0.99799132     0.09500
C30         C  0.86974611  0.14791099  0.47495242     0.20500
C31         C  0.88751112  0.16128664  0.01965334    -0.54300
C32         C  0.88889213  0.14852600  0.99542006     0.09600
C33         C  0.86510701  0.18290260  0.99119349    -0.53900
C34         C  0.86606520  0.17039686  0.46618418     0.10200
H35         H  0.84036988  0.15418697  0.04060464     0.14700
H36         H  0.87119056  0.13755222  0.45497700     0.00500
H37         H  0.90041671  0.16371759  0.03451293     0.15000
H38         H  0.86387523  0.19915825  0.98878609     0.14800
O39         O  0.88765662  0.27180373  0.27521881    -0.74300
O40         O  0.89003665  0.31401836  0.21459728    -0.74300
O41         O  0.89006728  0.31251630  0.27725453    -0.74400
O42         O  0.88737538  0.27344069  0.21249286    -0.74400
O43         O  0.85388532  0.27532792  0.21327404    -0.74400
O44         O  0.85663771  0.31498370  0.27692704    -0.74300
O45         O  0.85660648  0.31594347  0.21402717    -0.74300
O46         O  0.85420331  0.27387598  0.27574237    -0.74400
Ni47       Ni  0.88995633  0.29285808  0.24491345     1.25400
Ni48       Ni  0.85412919  0.29513079  0.24505588     1.25400
C49         C  0.87064429  0.26592639  0.28562847     0.87900
C50         C  0.87375873  0.32169526  0.20380657     0.87800
C51         C  0.87379466  0.32035378  0.28752829     0.87800
C52         C  0.87013518  0.26798079  0.20231513     0.88000
O53         O  0.87611528  0.47490325  0.46080085    -0.74300
O54         O  0.87179954  0.43612799  0.02623468    -0.74300
O55         O  0.87701154  0.47642216  0.02300467    -0.74400
O56         O  0.87102493  0.43425787  0.46365706    -0.74400
O57         O  0.90438953  0.43067070  0.46189576    -0.74400
O58         O  0.91022594  0.47134380  0.02363807    -0.74300
O59         O  0.90491498  0.43088793  0.02468501    -0.74300
O60         O  0.90940579  0.47122431  0.46085365    -0.74400
Ni61       Ni  0.87282350  0.45550301  0.99338789     1.25400
Ni62       Ni  0.90845740  0.45083773  0.99275114     1.25400
C63         C  0.89343500  0.47969037  0.45024596     0.87900
C64         C  0.88760495  0.42721576  0.03637175     0.87800
C65         C  0.89457957  0.48063848  0.03318928     0.87800
C66         C  0.88677121  0.42563545  0.45293812     0.88000
C67         C  0.71770748  0.88687313  0.04391327     0.86600
C68         C  0.73281898  0.86920403  0.04303142    -0.53600
C69         C  0.74423452  0.86805954  0.01690014     0.09500
C70         C  0.73992049  0.88566931  0.49394969     0.20500
C71         C  0.73099161  0.90545453  0.03946268    -0.54300
C72         C  0.74233139  0.90512722  0.01333803     0.09600
C73         C  0.70570705  0.88480123  0.01356721    -0.53900
C74         C  0.71716696  0.88473295  0.48731930     0.10200
H75         H  0.73541011  0.85881190  0.06177118     0.14700
H76         H  0.74926925  0.88539729  0.47275673     0.00500
H77         H  0.73100861  0.91812948  0.05535656     0.15000
H78         H  0.68939186  0.88460904  0.01267212     0.14800
O79         O  0.62090210  0.92209321  0.29550395    -0.74300
O80         O  0.58020044  0.92974844  0.23306488    -0.74300
O81         O  0.58105517  0.93134876  0.29597776    -0.74400
O82         O  0.61974784  0.92074582  0.23310367    -0.74400
O83         O  0.61221879  0.88801720  0.23465493    -0.74400
O84         O  0.57433223  0.89841849  0.29863137    -0.74300
O85         O  0.57271569  0.89706215  0.23602166    -0.74300
O86         O  0.61371384  0.88929092  0.29719633    -0.74400
Ni87       Ni  0.60070281  0.92718438  0.26438971     1.25400
Ni88       Ni  0.59294931  0.89205246  0.26670016     1.25400
C89         C  0.62413456  0.90435984  0.30636594     0.87900
C90         C  0.56994088  0.91450548  0.22398988     0.87800
C91         C  0.57161396  0.91651126  0.30795008     0.87800
C92         C  0.62218094  0.90271263  0.22328209     0.88000
C93         C  0.16147914  0.88431665  0.47990958     0.86600
C94         C  0.14426224  0.86882186  0.48042526    -0.53600
C95         C  0.13129100  0.87029974  0.00493221     0.09500
C96         C  0.13682990  0.88839091  0.02658422     0.20500
C97         C  0.15074659  0.90457421  0.48087863    -0.54300
C98         C  0.13760308  0.90706377  0.00461451     0.09600
C99         C  0.17138206  0.88172643  0.01109188    -0.53900
C100        C  0.15906620  0.88431740  0.03579958     0.10200
H101        H  0.14221034  0.85733196  0.46309764     0.14700
H102        H  0.12706149  0.89028431  0.04698783     0.00500
H103        H  0.15279452  0.91591925  0.46301921     0.15000
H104        H  0.18730707  0.87839082  0.01361978     0.14800
O105        O  0.25925167  0.90873880  0.22552686    -0.74300
O106        O  0.29981103  0.91473367  0.28842871    -0.74300
O107        O  0.29949158  0.91444540  0.22583740    -0.74400
O108        O  0.25966667  0.90921303  0.28822549    -0.74400
O109        O  0.26528813  0.87603514  0.28997129    -0.74400
O110        O  0.30322813  0.88097121  0.22479129    -0.74300
O111        O  0.30542687  0.88159105  0.28737636    -0.74300
O112        O  0.26305838  0.87536188  0.22737944    -0.74400
Ni113      Ni  0.27936706  0.91297258  0.25693914     1.25400
Ni114      Ni  0.28440529  0.87728788  0.25736794     1.25400
C115        C  0.25433086  0.89104824  0.21627401     0.87900
C116        C  0.30938376  0.89914542  0.29818706     0.87800
C117        C  0.30769313  0.89855458  0.21486997     0.87800
C118        C  0.25645793  0.89185420  0.30005297     0.88000
O119        O  0.42020362  0.89455276  0.48000994    -0.74300
O120        O  0.46250114  0.89622069  0.04135509    -0.74300
O121        O  0.42168756  0.89312903  0.04287237    -0.74400
O122        O  0.46081612  0.89750052  0.47870747    -0.74400
O123        O  0.45910799  0.93106352  0.48190836    -0.74400
O124        O  0.41824673  0.92659719  0.04265891    -0.74300
O125        O  0.45878801  0.92959191  0.04396676    -0.74300
O126        O  0.41861646  0.92812156  0.48027355    -0.74400
Ni127      Ni  0.44137424  0.89399055  0.01084932     1.25400
Ni128      Ni  0.43858272  0.92989971  0.01227291     1.25400
C129        C  0.41276403  0.91111160  0.46955587     0.87900
C130        C  0.46758398  0.91334311  0.05269004     0.87800
C131        C  0.41324152  0.90921833  0.05278582     0.87800
C132        C  0.46651959  0.91503578  0.47015708     0.88000
C133        C  0.71434287  0.01968995  0.47916540     0.86600
C134        C  0.73111794  0.03558909  0.48139924    -0.53600
C135        C  0.74437069  0.03319636  0.00527450     0.09500
C136        C  0.73955522  0.01409166  0.02520561     0.20500
C137        C  0.72566830  0.99972015  0.47795249    -0.54300
C138        C  0.73888566  0.99642305  0.00157076     0.09600
C139        C  0.70452453  0.02031843  0.51110616    -0.53900
C140        C  0.71732455  0.01696978  0.03522429     0.10200
H141        H  0.73273982  0.04799002  0.46552145     0.14700
H142        H  0.74970059  0.01147617  0.04513330     0.00500
H143        H  0.72362576  0.98917110  0.45899643     0.15000
H144        H  0.68840106  0.02250034  0.01446645     0.14800
O145        O  0.57762618  0.98350685  0.28978585    -0.74300
O146        O  0.61768303  0.98619512  0.22587789    -0.74300
O147        O  0.61768575  0.99067391  0.28800753    -0.74400
O148        O  0.57719376  0.97898074  0.22730382    -0.74400
O149        O  0.57167293  0.01197081  0.22135781    -0.74400
O150        O  0.61138908  0.02349431  0.28267951    -0.74300
O151        O  0.61174011  0.01909124  0.22051096    -0.74300
O152        O  0.57124525  0.01627158  0.28377826    -0.74400
Ni153      Ni  0.59773807  0.98364880  0.25787352     1.25400
Ni154      Ni  0.59128242  0.01885429  0.25186788     1.25400
C155        C  0.56797364  0.99946901  0.29759307     0.87900
C156        C  0.62162428  0.00318722  0.21309935     0.87800
C157        C  0.62101526  0.00903547  0.29561746     0.87800
C158        C  0.56788254  0.99365214  0.21425692     0.88000
C159        C  0.15738918  0.02501760  0.03373663     0.86600
C160        C  0.13926343  0.03931719  0.03391815    -0.53600
C161        C  0.12618022  0.03698624  0.00979805     0.09500
C162        C  0.13273927  0.02028092  0.48691606     0.20500
C163        C  0.14873020  0.00374820  0.03112133    -0.54300
C164        C  0.13590490  0.00101737  0.00707670     0.09600
C165        C  0.16713764  0.02855116  0.00200134    -0.53900
C166        C  0.15425883  0.02645156  0.47751424     0.10200
H167        H  0.13702659  0.05054821  0.05184999     0.14700
H168        H  0.12224337  0.01804939  0.46721740     0.00500
H169        H  0.15219539  0.99179971  0.04752307     0.15000
H170        H  0.18287457  0.03160730  0.99819776     0.14800
O171        O  0.25345162  0.99641100  0.29187509    -0.74300
O172        O  0.29285179  0.99000336  0.22767075    -0.74300
O173        O  0.29381036  0.99027239  0.29030279    -0.74400
O174        O  0.25260050  0.99597413  0.22936648    -0.74400
O175        O  0.25783232  0.02907894  0.22802634    -0.74400
O176        O  0.29793237  0.02365868  0.29073917    -0.74300
O177        O  0.29800582  0.02313051  0.22796603    -0.74300
O178        O  0.25762782  0.02972166  0.29032735    -0.74400
Ni179      Ni  0.27300531  0.99197574  0.25987437     1.25400
Ni180      Ni  0.27804580  0.02757409  0.25927729     1.25400
C181        C  0.24885185  0.01414606  0.30137152     0.87900
C182        C  0.30205482  0.00556605  0.21727850     0.87800
C183        C  0.30248583  0.00605401  0.30074511     0.87800
C184        C  0.24866292  0.01339163  0.21818585     0.88000
O185        O  0.45732827  0.01036958  0.47955685    -0.74300
O186        O  0.41371169  0.01025903  0.03798384    -0.74300
O187        O  0.45448154  0.00858744  0.04227468    -0.74400
O188        O  0.41656303  0.01204780  0.47533107    -0.74400
O189        O  0.41419052  0.97849551  0.47505898    -0.74400
O190        O  0.45433744  0.97507492  0.03828909    -0.74300
O191        O  0.41353068  0.97668866  0.03762660    -0.74300
O192        O  0.45495156  0.97696636  0.47547337    -0.74400
Ni193      Ni  0.43552001  0.01146364  0.00884749     1.25400
Ni194      Ni  0.43429199  0.97555283  0.00653003     1.25400
C195        C  0.46311729  0.99368884  0.46750507     0.87900
C196        C  0.40665167  0.99349085  0.04792738     0.87800
C197        C  0.46089333  0.99121191  0.05090969     0.87800
C198        C  0.40889215  0.99576380  0.46464101     0.88000
C199        C  0.00312409  0.73442754  0.03569979     0.86600
C200        C  0.01933738  0.75078319  0.03599303    -0.53600
C201        C  0.01982764  0.76327782  0.01055714     0.09500
C202        C  0.00280546  0.75785009  0.48708803     0.20500
C203        C  0.98334166  0.74567589  0.03102101    -0.54300
C204        C  0.98288713  0.75788796  0.00595323     0.09600
C205        C  0.00651833  0.72329100  0.00472720    -0.53900
C206        C  0.00625219  0.73551030  0.47944727     0.10200
H207        H  0.02944370  0.75220464  0.05554636     0.14700
H208        H  0.00203139  0.76689851  0.46578524     0.00500
H209        H  0.97055621  0.74399057  0.04635486     0.15000
H210        H  0.00815339  0.70736370  0.00170726     0.14800
O211        O  0.97496155  0.59399483  0.22741338    -0.74300
O212        O  0.97566559  0.63444785  0.29126794    -0.74300
O213        O  0.97545676  0.63483940  0.22869559    -0.74400
O214        O  0.97491328  0.59363611  0.29001806    -0.74400
O215        O  0.00847244  0.59384929  0.29123070    -0.74400
O216        O  0.00891366  0.63358735  0.22761300    -0.74300
O217        O  0.00917697  0.63457300  0.28979582    -0.74300
O218        O  0.00848728  0.59276965  0.22865976    -0.74400
Ni219      Ni  0.97403356  0.61423291  0.25934446     1.25400
Ni220      Ni  0.00995295  0.61363819  0.25933220     1.25400
C221        C  0.99165838  0.58672429  0.21766461     0.87900
C222        C  0.99261634  0.64132424  0.30072579     0.87800
C223        C  0.99222943  0.64092744  0.21786729     0.87800
C224        C  0.99160928  0.58726345  0.30106195     0.88000
C225        C  0.00386974  0.17595657  0.48318447     0.86600
C226        C  0.02031594  0.15959144  0.48671755    -0.53600
C227        C  0.01705719  0.14544979  0.00945514     0.09500
C228        C  0.99680406  0.14949058  0.02667533     0.20500
C229        C  0.98480470  0.16369039  0.47805174    -0.54300
C230        C  0.98068994  0.15010868  0.00057727     0.09600
C231        C  0.00206756  0.18510524  0.51532760    -0.53900
C232        C  0.99823171  0.17152080  0.03795028     0.10200
H233        H  0.03314194  0.15837136  0.47161868     0.14700
H234        H  0.99332737  0.13915971  0.04590835     0.00500
H235        H  0.97535447  0.16556221  0.45769575     0.15000
H236        H  0.00381187  0.20106350  0.01974443     0.14800
O237        O  0.97945379  0.31460884  0.28726145    -0.74300
O238        O  0.97924068  0.27212851  0.22756489    -0.74300
O239        O  0.98222832  0.27405003  0.29002486    -0.74400
O240        O  0.97688773  0.31301964  0.22493172    -0.74400
O241        O  0.01024820  0.31496625  0.22204238    -0.74400
O242        O  0.01556687  0.27599984  0.28607291    -0.74300
O243        O  0.01258535  0.27433079  0.22341627    -0.74300
O244        O  0.01273423  0.31651468  0.28422881    -0.74400
Ni245      Ni  0.97824987  0.29334429  0.25749454     1.25400
Ni246      Ni  0.01396265  0.29546765  0.25377451     1.25400
C247        C  0.99608926  0.32253298  0.29589197     0.87900
C248        C  0.99581619  0.26629955  0.21557329     0.87800
C249        C  0.99989014  0.26914263  0.29936175     0.87800
C250        C  0.99278850  0.32068505  0.21317328     0.88000
O251        O  0.00765499  0.47519224  0.03787227    -0.74300
O252        O  0.00816215  0.43455462  0.47496604    -0.74300
O253        O  0.00749415  0.47505561  0.47538720    -0.74400
O254        O  0.00817746  0.43436073  0.03792884    -0.74400
O255        O  0.97467008  0.43388778  0.03778631    -0.74400
O256        O  0.97397877  0.47451414  0.47526028    -0.74300
O257        O  0.97463672  0.43384819  0.47504002    -0.74300
O258        O  0.97419600  0.47473242  0.03776671    -0.74400
Ni259      Ni  0.00911584  0.45472552  0.00659291     1.25400
Ni260      Ni  0.97322175  0.45418151  0.00650839     1.25400
C261        C  0.99082625  0.48169778  0.04827579     0.87900
C262        C  0.99152092  0.42782635  0.46422482     0.87800
C263        C  0.99059179  0.48145766  0.46505819     0.87800
C264        C  0.99153265  0.42761716  0.04845382     0.88000
O265        O  0.11977053  0.97522534  0.47759710    -0.74300
O266        O  0.08011972  0.93362294  0.47225376    -0.74300
O267        O  0.08014057  0.97413973  0.47194611    -0.74400
O268        O  0.12045941  0.93345349  0.47852277    -0.74400
O269        O  0.11619705  0.93166198  0.02942902    -0.74400
O270        O  0.07809912  0.97513678  0.02313542    -0.74300
O271        O  0.07605689  0.93465848  0.02323539    -0.74300
O272        O  0.11811249  0.97349716  0.02893712    -0.74400
Ni273      Ni  0.10040841  0.95397922  0.47327028     1.25400
Ni274      Ni  0.09716435  0.95370656  0.02807828     1.25400
C275        C  0.12432151  0.98213861  0.00421123     0.87900
C276        C  0.07084577  0.92808970  0.99663755     0.87800
C277        C  0.07285370  0.98182647  0.99653432     0.87800
C278        C  0.12408401  0.92496600  0.00452683     0.88000
O279        O  0.91441960  0.13210608  0.46574385    -0.74300
O280        O  0.95759151  0.09397550  0.45982730    -0.74300
O281        O  0.91686337  0.09254091  0.45670849    -0.74400
O282        O  0.95581301  0.13376395  0.47008024    -0.74400
O283        O  0.95597436  0.12744477  0.02063349    -0.74400
O284        O  0.91484670  0.08821689  0.00747714    -0.74300
O285        O  0.95533206  0.08769234  0.01018957    -0.74300
O286        O  0.91460711  0.12802077  0.01689680    -0.74400
Ni287      Ni  0.93627724  0.11338073  0.46127324     1.25400
Ni288      Ni  0.93512003  0.10774186  0.01565067     1.25400
C289        C  0.90686139  0.13565447  0.99229886     0.87900
C290        C  0.96346240  0.08461181  0.98385958     0.87800
C291        C  0.90897451  0.08396686  0.98004370     0.87800
C292        C  0.96321401  0.13654869  0.99716574     0.88000
O293        O  0.91348757  0.77878758  0.01412288    -0.74300
O294        O  0.95578220  0.81745105  0.01274013    -0.74300
O295        O  0.91615610  0.81869922  0.00418486    -0.74400
O296        O  0.95470783  0.77747367  0.02148493    -0.74400
O297        O  0.96030543  0.77375932  0.47096464    -0.74400
O298        O  0.91948639  0.81254659  0.45379371    -0.74300
O299        O  0.95922938  0.81357211  0.46195157    -0.74300
O300        O  0.91901705  0.77261333  0.46419009    -0.74400
Ni301      Ni  0.93485536  0.79808644  0.01501674     1.25400
Ni302      Ni  0.93958668  0.79270692  0.46092784     1.25400
C303        C  0.90869349  0.76999360  0.98894422     0.87900
C304        C  0.96385924  0.82245942  0.98711123     0.87800
C305        C  0.91228052  0.82294674  0.97592408     0.87800
C306        C  0.96497841  0.77016318  0.99904378     0.88000
O307        O  0.75654259  0.92790869  0.47646164    -0.74300
O308        O  0.79234737  0.97129071  0.45618311    -0.74300
O309        O  0.79482270  0.93103678  0.45814224    -0.74400
O310        O  0.75361239  0.96929545  0.47386849    -0.74400
O311        O  0.76364486  0.97321858  0.02277017    -0.74400
O312        O  0.80330036  0.93192111  0.00796884    -0.74300
O313        O  0.80243449  0.97199065  0.00547502    -0.74300
O314        O  0.76447361  0.93169519  0.02636562    -0.74400
Ni315      Ni  0.77379522  0.94982537  0.46446475     1.25400
Ni316      Ni  0.78365423  0.95221221  0.01751497     1.25400
C317        C  0.75509072  0.92237778  0.00487751     0.87900
C318        C  0.80391018  0.97799925  0.97757301     0.87800
C319        C  0.80626739  0.92559878  0.98029028     0.87800
C320        C  0.75258253  0.97866318  0.99989236     0.88000
C321        C  0.90011064  0.84059448  0.96880308    -0.11800
C322        C  0.90428852  0.85924819  0.98279855     0.03600
C323        C  0.89143851  0.87545472  0.97765478    -0.12400
C324        C  0.87393187  0.87299293  0.96000760     0.18500
C325        C  0.87139210  0.85514272  0.44264779    -0.09400
C326        C  0.88448921  0.83898012  0.44736097    -0.02400
H327        H  0.89410907  0.88949494  0.98976447     0.05000
C328        C  0.85729738  0.88730436  0.96487922     0.20500
H329        H  0.88192990  0.82492534  0.43523875     0.10200
C330        C  0.84846923  0.89710870  0.43977301    -0.15800
C331        C  0.83144330  0.90917713  0.44371209     0.03200
C332        C  0.82350598  0.91223394  0.97383333    -0.11100
C333        C  0.83300257  0.90290103  0.99899223    -0.01100
C334        C  0.84959254  0.89048523  0.99484931    -0.06300
H335        H  0.85461633  0.89512519  0.41683635     0.06200
H336        H  0.82728168  0.90492011  0.02218973     0.09600
Br337      Br  0.85005222  0.85141521  0.41322222    -0.06000
Br338      Br  0.92696807  0.86335309  0.00965731    -0.02900
Br339      Br  0.82030043  0.92080868  0.40668297    -0.00100
Br340      Br  0.85999377  0.87738316  0.03122488    -0.04400
C341        C  0.89251678  0.06932049  0.97593260    -0.11800
C342        C  0.88785401  0.06036596  0.44715220     0.03600
C343        C  0.87212287  0.04656402  0.44511794    -0.12400
C344        C  0.86115366  0.04122313  0.97127456     0.18500
C345        C  0.86575231  0.04995459  0.99996855    -0.09400
C346        C  0.88109864  0.06407625  0.00201588    -0.02400
H347        H  0.86886421  0.03939140  0.42318084     0.05000
C348        C  0.84682622  0.02459736  0.96913049     0.20500
H349        H  0.88427974  0.07070267  0.02436168     0.10200
C350        C  0.85263924  0.00588581  0.98111230    -0.15800
C351        C  0.83907488  0.99002872  0.98212309     0.03200
C352        C  0.81938921  0.99284412  0.97075865    -0.11100
C353        C  0.81407027  0.01106224  0.45677211    -0.01100
C354        C  0.82771252  0.02702178  0.45604500    -0.06300
H355        H  0.86763122  0.00382014  0.99050705     0.06200
H356        H  0.79891776  0.01333077  0.44815005     0.09600
Br357      Br  0.85214516  0.04243678  0.03726879    -0.06000
Br358      Br  0.90282766  0.06489943  0.40992824    -0.02900
Br359      Br  0.84817722  0.96494697  0.99961225    -0.00100
Br360      Br  0.81915653  0.05224550  0.43879426    -0.04400
C361        C  0.98003357  0.07009331  0.98185724    -0.11800
C362        C  0.99819979  0.07462296  0.46681429     0.03600
C363        C  0.01417157  0.06090124  0.46798960    -0.12400
C364        C  0.01230655  0.04294284  0.98413004     0.18500
C365        C  0.99426040  0.03833136  0.99925945    -0.09400
C366        C  0.97829581  0.05189528  0.99806117    -0.02400
H367        H  0.02823058  0.06452661  0.45674959     0.05000
C368        C  0.02929569  0.02892278  0.98588447     0.20500
H369        H  0.96450794  0.04831049  0.01010548     0.10200
C370        C  0.04014955  0.02746528  0.01356521    -0.15800
C371        C  0.05435058  0.01219480  0.01789817     0.03200
C372        C  0.05815091  0.99838315  0.99372215    -0.11100
C373        C  0.04743457  0.00016511  0.46593553    -0.01100
C374        C  0.03297398  0.01516786  0.46206131    -0.06300
H375        H  0.03694979  0.03778964  0.03231356     0.06200
H376        H  0.04988551  0.98962265  0.44721530     0.09600
Br377      Br  0.99084243  0.01370503  0.02197280    -0.06000
Br378      Br  0.00278119  0.10017657  0.44715531    -0.02900
Br379      Br  0.06743865  0.01106852  0.05751770    -0.00100
Br380      Br  0.01778039  0.01572782  0.42429106    -0.04400
C381        C  0.05435096  0.91346138  0.99414022    -0.11800
C382        C  0.03809020  0.91337571  0.01504135     0.03600
C383        C  0.02341083  0.89852470  0.01260950    -0.12400
C384        C  0.02473342  0.88350429  0.99000814     0.18500
C385        C  0.04062279  0.88376184  0.46878557    -0.09400
C386        C  0.05526454  0.89870538  0.47088004    -0.02400
H387        H  0.01091431  0.89858678  0.02859852     0.05000
C388        C  0.00928450  0.86773803  0.98916678     0.20500
H389        H  0.06766044  0.89849954  0.45472099     0.10200
C390        C  0.99643919  0.86644439  0.46365408    -0.15800
C391        C  0.98135131  0.85189917  0.46241017     0.03200
C392        C  0.97896408  0.83848866  0.98726185    -0.11100
C393        C  0.99147604  0.84020477  0.01327003    -0.01100
C394        C  0.00664686  0.85455499  0.01430151    -0.06300
H395        H  0.99810488  0.87691325  0.44460703     0.06200
H396        H  0.98983333  0.82993596  0.03258029     0.09600
Br397      Br  0.04351848  0.86363838  0.43727043    -0.06000
Br398      Br  0.03443119  0.93336372  0.04665551    -0.02900
Br399      Br  0.96398391  0.85193794  0.42684317    -0.00100
Br400      Br  0.02369447  0.85496617  0.05016255    -0.04400
C401        C  0.99567352  0.33874044  0.31972178    -0.11800
C402        C  0.01307756  0.34555827  0.33552277     0.03600
C403        C  0.01130051  0.35997638  0.35895140    -0.12400
C404        C  0.99260766  0.36830177  0.36676440     0.18500
C405        C  0.97545518  0.36248840  0.34990045    -0.09400
C406        C  0.97702315  0.34760458  0.32716822    -0.02400
H407        H  0.02467561  0.36476085  0.37125479     0.05000
C408        C  0.99167939  0.38360234  0.39169319     0.20500
H409        H  0.96351597  0.34323949  0.31486424     0.10200
C410        C  0.00312133  0.40123338  0.38876245    -0.15800
C411        C  0.00341888  0.41571240  0.41221754     0.03200
C412        C  0.99175439  0.41288493  0.43901193    -0.11100
C413        C  0.98019321  0.39534730  0.44188544    -0.01100
C414        C  0.98047496  0.38051403  0.41891072    -0.06300
H415        H  0.01195488  0.40369546  0.36812600     0.06200
H416        H  0.97148612  0.39283528  0.46263806     0.09600
Br417      Br  0.94983594  0.37538011  0.35539817    -0.06000
Br418      Br  0.03984244  0.33621283  0.32698776    -0.02900
Br419      Br  0.01945637  0.43932255  0.40579328    -0.00100
Br420      Br  0.96673106  0.35569270  0.42716135    -0.04400
C421        C  0.99144943  0.33630500  0.18892123    -0.11800
C422        C  0.97560145  0.35051136  0.18743210     0.03600
C423        C  0.97578059  0.36545900  0.16460688    -0.12400
C424        C  0.99149461  0.36654302  0.14317791     0.18500
C425        C  0.00733782  0.35252770  0.14477206    -0.09400
C426        C  0.00720622  0.33760181  0.16746026    -0.02400
H427        H  0.96371018  0.37644086  0.16370688     0.05000
C428        C  0.99113871  0.38236093  0.11924854     0.20500
H429        H  0.01951124  0.32687228  0.16820861     0.10200
C430        C  0.00534428  0.39789385  0.12040956    -0.15800
C431        C  0.00576708  0.41279361  0.09758098     0.03200
C432        C  0.99165329  0.41230940  0.07314767    -0.11100
C433        C  0.97716784  0.39695238  0.07244962    -0.01100
C434        C  0.97694029  0.38196116  0.09513143    -0.06300
H435        H  0.01615185  0.39839621  0.13918582     0.06200
H436        H  0.96625645  0.39635056  0.05382254     0.09600
Br437      Br  0.02925274  0.35284795  0.11605228    -0.06000
Br438      Br  0.95406112  0.35130051  0.21684444    -0.02900
Br439      Br  0.02518628  0.43396119  0.10214417    -0.00100
Br440      Br  0.95768499  0.36065251  0.09150835    -0.04400
C441        C  0.00225701  0.25578323  0.32631255    -0.11800
C442        C  0.01730117  0.25921365  0.34884367     0.03600
C443        C  0.01861602  0.24671435  0.37470189    -0.12400
C444        C  0.00536259  0.23058721  0.37844597     0.18500
C445        C  0.99041605  0.22703172  0.35594306    -0.09400
C446        C  0.98887108  0.23970422  0.33024720    -0.02400
H447        H  0.02983365  0.24978677  0.39228328     0.05000
C448        C  0.00657703  0.21830083  0.40675889     0.20500
H449        H  0.97727958  0.23688211  0.31315390     0.10200
C450        C  0.99048188  0.21883896  0.42732244    -0.15800
C451        C  0.99001353  0.20615607  0.45295186     0.03200
C452        C  0.00592267  0.19214632  0.45826954    -0.11100
C453        C  0.02292281  0.19316768  0.43898636    -0.01100
C454        C  0.02331807  0.20606302  0.41345383    -0.06300
H455        H  0.97792121  0.22890083  0.42293025     0.06200
H456        H  0.03598061  0.18388613  0.44291787     0.09600
Br457      Br  0.97205827  0.20483760  0.35893300    -0.06000
Br458      Br  0.03559676  0.28149557  0.34714165    -0.02900
Br459      Br  0.96653024  0.20854772  0.47862042    -0.00100
Br460      Br  0.04669953  0.20561284  0.38763842    -0.04400
C461        C  0.99546712  0.25029242  0.19198567    -0.11800
C462        C  0.98715317  0.23118709  0.19815330     0.03600
C463        C  0.98695491  0.21636579  0.17508166    -0.12400
C464        C  0.99464073  0.22044903  0.14561595     0.18500
C465        C  0.00218490  0.23982900  0.13911533    -0.09400
C466        C  0.00290909  0.25443745  0.16240036    -0.02400
H467        H  0.98093623  0.20158105  0.18018919     0.05000
C468        C  0.99486186  0.20443555  0.12180724     0.20500
H469        H  0.00882805  0.26925216  0.15718213     0.10200
C470        C  0.97707905  0.19973162  0.10589145    -0.15800
C471        C  0.97751608  0.18714613  0.07990066     0.03200
C472        C  0.99587235  0.17870047  0.07002432    -0.11100
C473        C  0.01334848  0.18224659  0.08733463    -0.01100
C474        C  0.01299294  0.19510746  0.11293219    -0.06300
H475        H  0.96307221  0.20685992  0.11251445     0.06200
H476        H  0.02761123  0.17626249  0.07946548     0.09600
Br477      Br  0.01084071  0.24722264  0.09839698    -0.06000
Br478      Br  0.97666438  0.22443812  0.23807530    -0.02900
Br479      Br  0.95313714  0.18362260  0.05672711    -0.00100
Br480      Br  0.03792484  0.20087111  0.13346753    -0.04400
C481        C  0.99162203  0.57155521  0.19274040    -0.11800
C482        C  0.99374069  0.55082771  0.19898231     0.03600
C483        C  0.99407508  0.53693661  0.17458488    -0.12400
C484        C  0.99247485  0.54336234  0.14370985     0.18500
C485        C  0.99016499  0.56417290  0.13756018    -0.09400
C486        C  0.98980767  0.57802435  0.16201064    -0.02400
H487        H  0.99557438  0.52101171  0.17971834     0.05000
C488        C  0.99216107  0.52795187  0.11870205     0.20500
H489        H  0.98805481  0.59394936  0.15702048     0.10200
C490        C  0.97645477  0.51387793  0.11793049    -0.15800
C491        C  0.97548293  0.49897644  0.09506142     0.03200
C492        C  0.99078270  0.49756576  0.07257339    -0.11100
C493        C  0.00680146  0.51136057  0.07388700    -0.01100
C494        C  0.00760546  0.52640153  0.09661202    -0.06300
H495        H  0.96484587  0.51444395  0.13539251     0.06200
H496        H  0.01883943  0.51044018  0.05716244     0.09600
Br497      Br  0.98642262  0.57448235  0.09647148    -0.06000
Br498      Br  0.99579626  0.54080961  0.24044890    -0.02900
Br499      Br  0.95350583  0.48034809  0.09730498    -0.00100
Br500      Br  0.03075635  0.54358364  0.09761322    -0.04400
C501        C  0.99139166  0.57190204  0.32522802    -0.11800
C502        C  0.00329832  0.57381907  0.35202644     0.03600
C503        C  0.00328173  0.55844049  0.37400444    -0.12400
C504        C  0.99140185  0.54129409  0.36962059     0.18500
C505        C  0.97916956  0.53957303  0.34327607    -0.09400
C506        C  0.97913579  0.55493436  0.32130641    -0.02400
H507        H  0.01231321  0.55995225  0.39475687     0.05000
C508        C  0.99120251  0.52575924  0.39355940     0.20500
H509        H  0.96976808  0.55349035  0.30089732     0.10200
C510        C  0.97656528  0.52682365  0.41657957    -0.15800
C511        C  0.97579832  0.51231908  0.43983300     0.03200
C512        C  0.99037453  0.49682070  0.44065998    -0.11100
C513        C  0.00510469  0.49591014  0.41752658    -0.01100
C514        C  0.00534171  0.51003150  0.39366259    -0.06300
H515        H  0.96567948  0.53899127  0.41639490     0.06200
H516        H  0.01623331  0.48397872  0.41768329     0.09600
Br517      Br  0.96244953  0.51647552  0.33653643    -0.06000
Br518      Br  0.01849734  0.59773113  0.36080453    -0.02900
Br519      Br  0.95501606  0.51514451  0.47023281    -0.00100
Br520      Br  0.02468044  0.50699305  0.36119286    -0.04400
C521        C  0.99255905  0.65682680  0.19410699    -0.11800
C522        C  0.97650374  0.65981746  0.17308511     0.03600
C523        C  0.97803297  0.67466761  0.15038506    -0.12400
C524        C  0.99562866  0.68601355  0.14733951     0.18500
C525        C  0.01150829  0.68328957  0.16838347    -0.09400
C526        C  0.00978605  0.66894997  0.19177081    -0.02400
H527        H  0.96598066  0.67647392  0.13368024     0.05000
C528        C  0.99823934  0.69831572  0.11946909     0.20500
H529        H  0.02224892  0.66689368  0.20766017     0.10200
C530        C  0.99727946  0.71931533  0.12124522    -0.15800
C531        C  0.99916992  0.73113221  0.09463676     0.03200
C532        C  0.00252116  0.72185722  0.06540503    -0.11100
C533        C  0.00388648  0.70060405  0.06439798    -0.01100
C534        C  0.00148960  0.68898012  0.09091229    -0.06300
H535        H  0.99464625  0.72649137  0.14330804     0.06200
H536        H  0.00628457  0.69250985  0.04369694     0.09600
Br537      Br  0.03642546  0.69754338  0.16447517    -0.06000
Br538      Br  0.95332841  0.64261843  0.17109015    -0.02900
Br539      Br  0.99603024  0.75976337  0.10027871    -0.00100
Br540      Br  0.00250709  0.66014290  0.08672005    -0.04400
C541        C  0.00575329  0.72684375  0.44785746    -0.11800
C542        C  0.02168239  0.71484633  0.43683456     0.03600
C543        C  0.01901756  0.70302140  0.41034037    -0.12400
C544        C  0.00062128  0.70305095  0.39432732     0.18500
C545        C  0.98519375  0.71615250  0.40408030    -0.09400
C546        C  0.98783799  0.72793092  0.43068473    -0.02400
H547        H  0.03111213  0.69325079  0.40279101     0.05000
C548        C  0.99739343  0.68820711  0.36913903     0.20500
H549        H  0.97549070  0.73714064  0.43887063     0.10200
C550        C  0.98496191  0.67148515  0.37451477    -0.15800
C551        C  0.98291606  0.65618780  0.35237757     0.03200
C552        C  0.99336117  0.65753583  0.32416933    -0.11100
C553        C  0.00561289  0.67437864  0.31870809    -0.01100
C554        C  0.00762276  0.68965830  0.34082724    -0.06300
H555        H  0.97731628  0.67002721  0.39645764     0.06200
H556        H  0.01369504  0.67563995  0.29710682     0.09600
Br557      Br  0.96018576  0.71807879  0.38206738    -0.06000
Br558      Br  0.04721664  0.71404179  0.45755237    -0.02900
Br559      Br  0.96737726  0.63288871  0.36310210    -0.00100
Br560      Br  0.02429109  0.71234826  0.33130097    -0.04400
C561        C  0.31725516  0.00320820  0.19220396    -0.11800
C562        C  0.33327393  0.01696358  0.18808252     0.03600
C563        C  0.34673717  0.01447580  0.16350420    -0.12400
C564        C  0.34480073  0.99844224  0.14260135     0.18500
C565        C  0.32916201  0.98445825  0.14697860    -0.09400
C566        C  0.31560830  0.98690644  0.17150836    -0.02400
H567        H  0.35897234  0.02507057  0.16080866     0.05000
C568        C  0.35961930  0.99642374  0.11701369     0.20500
H569        H  0.30350208  0.97615532  0.17405801     0.10200
C570        C  0.37394925  0.98089463  0.11802200    -0.15800
C571        C  0.38920075  0.97956912  0.09579091     0.03200
C572        C  0.39027088  0.99378714  0.07147952    -0.11100
C573        C  0.37569753  0.00919702  0.07035952    -0.01100
C574        C  0.36054683  0.01060461  0.09278241    -0.06300
H575        H  0.37367588  0.97013090  0.13685571     0.06200
H576        H  0.37610697  0.02027565  0.05196760     0.09600
Br577      Br  0.32528674  0.96218815  0.11940704    -0.06000
Br578      Br  0.33853357  0.03882843  0.21601639    -0.02900
Br579      Br  0.40926401  0.95934083  0.10210094    -0.00100
Br580      Br  0.34129131  0.03207184  0.08927936    -0.04400
C581        C  0.31809187  0.00386086  0.32450617    -0.11800
C582        C  0.31732215  0.01496143  0.35216628     0.03600
C583        C  0.33267857  0.01279276  0.37401848    -0.12400
C584        C  0.34887086  0.99967861  0.36868140     0.18500
C585        C  0.34932652  0.98813331  0.34140889    -0.09400
C586        C  0.33395923  0.99029751  0.31954257    -0.02400
H587        H  0.33199920  0.02135207  0.39530302     0.05000
C588        C  0.36478355  0.99803877  0.39235791     0.20500
H589        H  0.33448611  0.98150822  0.29846642     0.10200
C590        C  0.36025500  0.98881183  0.42059334    -0.15800
C591        C  0.37447787  0.98808136  0.44437460     0.03200
C592        C  0.39356666  0.99673955  0.44012127    -0.11100
C593        C  0.39809141  0.00608964  0.41192350    -0.01100
C594        C  0.38385076  0.00675681  0.38803038    -0.06300
H595        H  0.34548718  0.98241351  0.42426803     0.06200
H596        H  0.41274724  0.01277944  0.40844602     0.09600
Br597      Br  0.37026950  0.96892392  0.33340335    -0.06000
Br598      Br  0.29501179  0.03221670  0.36196718    -0.02900
Br599      Br  0.36661054  0.97642532  0.48298269    -0.00100
Br600      Br  0.39076205  0.02031914  0.35036948    -0.04400
C601        C  0.10762939  0.04990141  0.00781290    -0.11800
C602        C  0.10289826  0.06223540  0.48202408     0.03600
C603        C  0.08729206  0.07661087  0.48374139    -0.12400
C604        C  0.07625500  0.07936604  0.01101947     0.18500
C605        C  0.08029376  0.06644853  0.03627023    -0.09400
C606        C  0.09584098  0.05215339  0.03451492    -0.02400
H607        H  0.08433116  0.08617294  0.46392948     0.05000
C608        C  0.06131627  0.09640869  0.01311037     0.20500
H609        H  0.09926400  0.04314449  0.05475591     0.10200
C610        C  0.04119147  0.09265083  0.02098858    -0.15800
C611        C  0.02682742  0.10828420  0.02284020     0.03200
C612        C  0.03205048  0.12836740  0.01475268    -0.11100
C613        C  0.05248492  0.13219933  0.50884775    -0.01100
C614        C  0.06688177  0.11669294  0.50800909    -0.06300
H615        H  0.03653575  0.07732962  0.02572047     0.06200
H616        H  0.05754515  0.14743784  0.50455874     0.09600
Br617      Br  0.06623804  0.06850934  0.07478595    -0.06000
Br618      Br  0.11870719  0.06168311  0.44513197    -0.02900
Br619      Br  0.00086130  0.10039962  0.03709291    -0.00100
Br620      Br  0.09430161  0.12425270  0.50067097    -0.04400
C621        C  0.17041881  0.02707420  0.06267155    -0.11800
C622        C  0.16232096  0.02247925  0.09223121     0.03600
C623        C  0.17481865  0.02179738  0.11808803    -0.12400
C624        C  0.19526088  0.02590628  0.11551632     0.18500
C625        C  0.20329526  0.03171014  0.08700767    -0.09400
C626        C  0.19091180  0.03248062  0.06097073    -0.02400
H627        H  0.16865127  0.01753470  0.14029097     0.05000
C628        C  0.20816431  0.02272591  0.14251125     0.20500
H629        H  0.19785635  0.03702413  0.03970228     0.10200
C630        C  0.21572465  0.00337254  0.14808430    -0.15800
C631        C  0.22831458  0.99961465  0.17328187     0.03200
C632        C  0.23369423  0.01568675  0.19317583    -0.11100
C633        C  0.22541176  0.03494910  0.18787887    -0.01100
C634        C  0.21264948  0.03850336  0.16285140    -0.06300
H635        H  0.21193264  0.99116427  0.13250497     0.06200
H636        H  0.22898739  0.04739632  0.20310353     0.09600
Br637      Br  0.23129353  0.03792035  0.08238214    -0.06000
Br638      Br  0.13451376  0.01605731  0.09941986    -0.02900
Br639      Br  0.23796068  0.97239026  0.17773900    -0.00100
Br640      Br  0.20174229  0.06505212  0.15709474    -0.04400
C641        C  0.23277946  0.01683572  0.32468585    -0.11800
C642        C  0.23042599  0.00346827  0.34977742     0.03600
C643        C  0.21456241  0.00620198  0.37052573    -0.12400
C644        C  0.20084056  0.02218725  0.36705766     0.18500
C645        C  0.20349634  0.03589632  0.34248791    -0.09400
C646        C  0.21930926  0.03310549  0.32158148    -0.02400
H647        H  0.21322832  0.99606064  0.39004977     0.05000
C648        C  0.18525404  0.02514406  0.39118558     0.20500
H649        H  0.22093058  0.04358537  0.30254252     0.10200
C650        C  0.18606768  0.04245991  0.40970118    -0.15800
C651        C  0.17437829  0.04407879  0.43634347     0.03200
C652        C  0.16191984  0.02792143  0.44541126    -0.11100
C653        C  0.15972955  0.01139792  0.42552334    -0.01100
C654        C  0.17125637  0.00992032  0.39854422    -0.06300
H655        H  0.19658559  0.05437339  0.40427834     0.06200
H656        H  0.15006081  0.99898786  0.43198547     0.09600
Br657      Br  0.18577280  0.05841721  0.33607315    -0.06000
Br658      Br  0.24936511  0.98232165  0.35858447    -0.02900
Br659      Br  0.17648401  0.06849616  0.45998605    -0.00100
Br660      Br  0.16793911  0.98647545  0.37313384    -0.04400
C661        C  0.55276619  0.99848077  0.32276924    -0.11800
C662        C  0.55602813  0.98704982  0.34991676     0.03600
C663        C  0.54118032  0.98621616  0.37283731    -0.12400
C664        C  0.52286311  0.99657413  0.36953512     0.18500
C665        C  0.51985783  0.00853692  0.34293339    -0.09400
C666        C  0.53467822  0.00937538  0.31989694    -0.02400
H667        H  0.54407968  0.97758454  0.39354136     0.05000
C668        C  0.50756613  0.99538676  0.39469124     0.20500
H669        H  0.53199362  0.01852782  0.29954444     0.10200
C670        C  0.51139439  0.00485922  0.42313695    -0.15800
C671        C  0.49724930  0.00435182  0.44718336     0.03200
C672        C  0.47898306  0.99383358  0.44334167    -0.11100
C673        C  0.47546025  0.98381258  0.41528158    -0.01100
C674        C  0.48937141  0.98473030  0.39099772    -0.06300
H675        H  0.52538876  0.01287683  0.42653901     0.06200
H676        H  0.46152050  0.97568773  0.41188785     0.09600
Br677      Br  0.49614672  0.02472134  0.33772102    -0.06000
Br678      Br  0.58106168  0.97356370  0.35821070    -0.02900
Br679      Br  0.50399929  0.01751044  0.48528012    -0.00100
Br680      Br  0.48258986  0.97136877  0.35315728    -0.04400
C681        C  0.55249341  0.98970067  0.19059256    -0.11800
C682        C  0.55452633  0.99750759  0.16055172     0.03600
C683        C  0.53881575  0.99560364  0.13932370    -0.12400
C684        C  0.52067013  0.98646472  0.14772291     0.18500
C685        C  0.51871407  0.97829444  0.17771157    -0.09400
C686        C  0.53473428  0.97971919  0.19874660    -0.02400
H687        H  0.54054467  0.00182903  0.11632984     0.05000
C688        C  0.50415669  0.98634971  0.12465627     0.20500
H689        H  0.53299124  0.97382967  0.22194097     0.10200
C690        C  0.50671339  0.97534224  0.09729096    -0.15800
C691        C  0.49288508  0.97686989  0.07301472     0.03200
C692        C  0.47599623  0.98960335  0.07586484    -0.11100
C693        C  0.47348420  0.00079801  0.10309884    -0.01100
C694        C  0.48742702  0.99931056  0.12736569    -0.06300
H695        H  0.51985369  0.96593578  0.09440457     0.06200
H696        H  0.46066904  0.01078638  0.10546493     0.09600
Br697      Br  0.49439975  0.96585432  0.19161312    -0.06000
Br698      Br  0.57843758  0.01102789  0.14743855    -0.02900
Br699      Br  0.49886612  0.96271501  0.03545747    -0.00100
Br700      Br  0.48373442  0.01630591  0.16275684    -0.04400
C701        C  0.69952715  0.02108587  0.45183644    -0.11800
C702        C  0.68357435  0.00694606  0.44867264     0.03600
C703        C  0.67184707  0.00661932  0.42182463    -0.12400
C704        C  0.67557711  0.01990958  0.39748171     0.18500
C705        C  0.69088637  0.03420219  0.40035594    -0.09400
C706        C  0.70261212  0.03477567  0.42716757    -0.02400
H707        H  0.65991670  0.99561557  0.41962915     0.05000
C708        C  0.66320969  0.01848735  0.36930409     0.20500
H709        H  0.71453368  0.04563755  0.42725249     0.10200
C710        C  0.64735687  0.03211474  0.36505209    -0.15800
C711        C  0.63384116  0.02983303  0.34052693     0.03200
C712        C  0.63603053  0.01341983  0.31992598    -0.11100
C713        C  0.65250340  0.00029280  0.32360502    -0.01100
C714        C  0.66613837  0.00283551  0.34791454    -0.06300
H715        H  0.64513290  0.04421912  0.38149869     0.06200
H716        H  0.65469885  0.98789544  0.30767386     0.09600
Br717      Br  0.69704541  0.05254720  0.36742373    -0.06000
Br718      Br  0.67728879  0.98667558  0.47895816    -0.02900
Br719      Br  0.61196435  0.04876173  0.33837268    -0.00100
Br720      Br  0.68854419  0.98465769  0.35116515    -0.04400
C721        C  0.63766509  0.00464415  0.18927802    -0.11800
C722        C  0.65629376  0.99445565  0.19207633     0.03600
C723        C  0.67109775  0.99680235  0.16923804    -0.12400
C724        C  0.66772064  0.00905793  0.14319447     0.18500
C725        C  0.64884986  0.01865760  0.13997269    -0.09400
C726        C  0.63434799  0.01683548  0.16320010    -0.02400
H727        H  0.68539147  0.98912011  0.17192130     0.05000
C728        C  0.68355430  0.01094262  0.11895244     0.20500
H729        H  0.62016451  0.02466894  0.16046673     0.10200
C730        C  0.68968958  0.99372288  0.10261236    -0.15800
C731        C  0.70253585  0.99530416  0.07707635     0.03200
C732        C  0.70920840  0.01434286  0.06699052    -0.11100
C733        C  0.70427446  0.03139464  0.08461797    -0.01100
C734        C  0.69200405  0.02974110  0.11087324    -0.06300
H735        H  0.68385690  0.97907186  0.10899515     0.06200
H736        H  0.70944796  0.04612271  0.07737084     0.09600
Br737      Br  0.64144165  0.03323490  0.10327839    -0.06000
Br738      Br  0.66289050  0.97817575  0.22742453    -0.02900
Br739      Br  0.70975392  0.97116280  0.05559257    -0.00100
Br740      Br  0.68733169  0.05347923  0.13516462    -0.04400
C741        C  0.32470697  0.90146585  0.32302476    -0.11800
C742        C  0.34326017  0.89103839  0.32261909     0.03600
C743        C  0.35701510  0.89342878  0.34703223    -0.12400
C744        C  0.35255005  0.90585649  0.37234285     0.18500
C745        C  0.33404792  0.91619519  0.37284628    -0.09400
C746        C  0.32044595  0.91414711  0.34820267    -0.02400
H747        H  0.37125462  0.88547895  0.34634505     0.05000
C748        C  0.36736476  0.90772555  0.39799116     0.20500
H749        H  0.30622299  0.92211997  0.34910689     0.10200
C750        C  0.38245170  0.92241379  0.39636258    -0.15800
C751        C  0.39714419  0.92403681  0.41960485     0.03200
C752        C  0.39712384  0.91050576  0.44491156    -0.11100
C753        C  0.38188664  0.89590757  0.44652016    -0.01100
C754        C  0.36697035  0.89463355  0.42360145    -0.06300
H755        H  0.38291268  0.93253945  0.37674117     0.06200
H756        H  0.38142681  0.88558541  0.46591798     0.09600
Br757      Br  0.32654301  0.93280431  0.40717090    -0.06000
Br758      Br  0.35103724  0.87409724  0.28874677    -0.02900
Br759      Br  0.41751883  0.94419130  0.41435716    -0.00100
Br760      Br  0.34615667  0.87494894  0.42828952    -0.04400
C761        C  0.39760114  0.90776690  0.07641274    -0.11800
C762        C  0.38001599  0.91964803  0.07477676     0.03600
C763        C  0.36580679  0.91842108  0.09822350    -0.12400
C764        C  0.36877029  0.90536833  0.12318828     0.18500
C765        C  0.38603654  0.89316530  0.12464212    -0.09400
C766        C  0.40035826  0.89442830  0.10125992    -0.02400
H767        H  0.35225978  0.92746533  0.09679433     0.05000
C768        C  0.35313471  0.90399368  0.14671582     0.20500
H769        H  0.41376158  0.88514735  0.10264903     0.10200
C770        C  0.33634837  0.89189968  0.14082205    -0.15800
C771        C  0.32120047  0.89006410  0.16277767     0.03200
C772        C  0.32283309  0.90059425  0.19086132    -0.11100
C773        C  0.33938576  0.91310618  0.19639771    -0.01100
C774        C  0.35461890  0.91477846  0.17454758    -0.06300
H775        H  0.33508505  0.88386430  0.11911625     0.06200
H776        H  0.34063579  0.92126559  0.21800022     0.09600
Br777      Br  0.39035682  0.87442813  0.15782710    -0.06000
Br778      Br  0.37397540  0.93688445  0.04036916    -0.02900
Br779      Br  0.29818256  0.87390731  0.15276877    -0.00100
Br780      Br  0.37715556  0.93177140  0.18362070    -0.04400
C781        C  0.03644129  0.77905506  0.00736803    -0.11800
C782        C  0.03492268  0.79750428  0.49067954     0.03600
C783        C  0.05047349  0.81193943  0.49194278    -0.12400
C784        C  0.06803309  0.80861711  0.00908681     0.18500
C785        C  0.06982347  0.79040625  0.02555952    -0.09400
C786        C  0.05466353  0.77583779  0.02376607    -0.02400
H787        H  0.04887728  0.82583280  0.47899800     0.05000
C788        C  0.08437982  0.82418066  0.00941341     0.20500
H789        H  0.05743734  0.76181701  0.03577334     0.10200
C790        C  0.08054618  0.84367124  0.02075772    -0.15800
C791        C  0.09546362  0.85876004  0.02080703     0.03200
C792        C  0.11499598  0.85456783  0.00945444    -0.11100
C793        C  0.11882590  0.83474030  0.49930252    -0.01100
C794        C  0.10374999  0.82004740  0.49818664    -0.06300
H795        H  0.06571630  0.84727183  0.02931831     0.06200
H796        H  0.13358310  0.83052332  0.49106756     0.09600
Br797      Br  0.09209068  0.78500564  0.05277268    -0.06000
Br798      Br  0.01265604  0.80466001  0.46492297    -0.02900
Br799      Br  0.08743705  0.88472536  0.03534402    -0.00100
Br800      Br  0.11003399  0.79504071  0.47797429    -0.04400
C801        C  0.24263486  0.89017588  0.32607306    -0.11800
C802        C  0.24768739  0.87865349  0.35237914     0.03600
C803        C  0.23426254  0.87754445  0.37690658    -0.12400
C804        C  0.21594895  0.88788977  0.37567444     0.18500
C805        C  0.21106503  0.89983089  0.34986456    -0.09400
C806        C  0.22443823  0.90089971  0.32519380    -0.02400
H807        H  0.23817529  0.86874148  0.39717663     0.05000
C808        C  0.20236045  0.88632079  0.40199971     0.20500
H809        H  0.22060395  0.91004379  0.30525168     0.10200
C810        C  0.20564906  0.89860984  0.42757996    -0.15800
C811        C  0.19302243  0.89764545  0.45311019     0.03200
C812        C  0.17654214  0.88394943  0.45336920    -0.11100
C813        C  0.17383871  0.87127875  0.42748323    -0.01100
C814        C  0.18661472  0.87238571  0.40209057    -0.06300
H815        H  0.21804441  0.90917856  0.42751249     0.06200
H816        H  0.16168714  0.86068651  0.42590658     0.09600
Br817      Br  0.18655564  0.91510271  0.34770421    -0.06000
Br818      Br  0.27326609  0.86549325  0.35724757    -0.02900
Br819      Br  0.19934249  0.91606909  0.48614632    -0.00100
Br820      Br  0.18208084  0.85459253  0.36783374    -0.04400
C821        C  0.23872522  0.88889943  0.19184623    -0.11800
C822        C  0.22408416  0.87350364  0.19244854     0.03600
C823        C  0.20957525  0.87232760  0.16889544    -0.12400
C824        C  0.20958172  0.88595524  0.14404549     0.18500
C825        C  0.22447400  0.90103294  0.14308837    -0.09400
C826        C  0.23861831  0.90257862  0.16703521    -0.02400
H827        H  0.19822979  0.86066669  0.16991874     0.05000
C828        C  0.19423743  0.88407477  0.11907812     0.20500
H829        H  0.24996100  0.91423944  0.16582245     0.10200
C830        C  0.18062869  0.89994778  0.11359914    -0.15800
C831        C  0.16771678  0.89976195  0.08785178     0.03200
C832        C  0.16777968  0.88312964  0.06755177    -0.11100
C833        C  0.18038014  0.86663642  0.07448771    -0.01100
C834        C  0.19374531  0.86713377  0.09951154    -0.06300
H835        H  0.18084771  0.91306306  0.12849638     0.06200
H836        H  0.18092430  0.85387761  0.05888748     0.09600
Br837      Br  0.22695950  0.91908353  0.10861814    -0.06000
Br838      Br  0.22251605  0.85420084  0.22540686    -0.02900
Br839      Br  0.15246115  0.92370611  0.07961863    -0.00100
Br840      Br  0.21272109  0.84542317  0.10348293    -0.04400
C841        C  0.48393960  0.91462611  0.07594473    -0.11800
C842        C  0.48171170  0.92638448  0.10279493     0.03600
C843        C  0.49740838  0.92783191  0.12407475    -0.12400
C844        C  0.51566348  0.91783918  0.11941696     0.18500
C845        C  0.51816146  0.90616059  0.09249449    -0.09400
C846        C  0.50231125  0.90457985  0.07101522    -0.02400
H847        H  0.49507690  0.93622349  0.14510050     0.05000
C848        C  0.53016170  0.91731682  0.14550527     0.20500
H849        H  0.50435420  0.89554960  0.05041942     0.10200
C850        C  0.52476015  0.90634573  0.17187364    -0.15800
C851        C  0.53705836  0.90597618  0.19808310     0.03200
C852        C  0.55534664  0.91666172  0.19827997    -0.11100
C853        C  0.56045788  0.92828264  0.17227898    -0.01100
C854        C  0.54805738  0.92865030  0.14596273    -0.06300
H855        H  0.51070113  0.89813602  0.17214991     0.06200
H856        H  0.57441055  0.93666137  0.17209009     0.09600
Br857      Br  0.54250578  0.89146502  0.08494102    -0.06000
Br858      Br  0.45700459  0.93932200  0.11340095    -0.02900
Br859      Br  0.52739841  0.89163506  0.23355865    -0.00100
Br860      Br  0.55624090  0.94478088  0.11151858    -0.04400
C861        C  0.48220770  0.91694498  0.44691696    -0.11800
C862        C  0.48123297  0.90641081  0.41878675     0.03600
C863        C  0.49679596  0.90843146  0.39752007    -0.12400
C864        C  0.51328391  0.92087618  0.40398231     0.18500
C865        C  0.51397054  0.93177947  0.43179172    -0.09400
C866        C  0.49842467  0.92977289  0.45301499    -0.02400
H867        H  0.49607324  0.90027172  0.37586725     0.05000
C868        C  0.52956961  0.92197406  0.38129982     0.20500
H869        H  0.49911507  0.93805523  0.47453899     0.10200
C870        C  0.52634802  0.93263868  0.35376328    -0.15800
C871        C  0.54040234  0.93189701  0.32994237     0.03200
C872        C  0.55774352  0.91994942  0.33349999    -0.11100
C873        C  0.56122179  0.90969062  0.36135408    -0.01100
C874        C  0.54732579  0.91073032  0.38533611    -0.06300
H875        H  0.51254294  0.94094251  0.35039244     0.06200
H876        H  0.57459360  0.90048332  0.36416656     0.09600
Br877      Br  0.53564134  0.94955894  0.44184388    -0.06000
Br878      Br  0.45841269  0.89029549  0.40756559    -0.02900
Br879      Br  0.53437883  0.94587853  0.29217001    -0.00100
Br880      Br  0.55257167  0.89552867  0.42226764    -0.04400
C881        C  0.63691037  0.89905524  0.19869040    -0.11800
C882        C  0.63342529  0.88512583  0.17461875     0.03600
C883        C  0.64748833  0.88318469  0.15090722    -0.12400
C884        C  0.66508964  0.89471601  0.15101729     0.18500
C885        C  0.66883245  0.90817786  0.17536464    -0.09400
C886        C  0.65469519  0.91039367  0.19881405    -0.02400
H887        H  0.64458316  0.87284208  0.13205706     0.05000
C888        C  0.67901506  0.89294892  0.12490439     0.20500
H889        H  0.65765768  0.92098457  0.21731659     0.10200
C890        C  0.67701181  0.90620787  0.10006823    -0.15800
C891        C  0.68938773  0.90451888  0.07421447     0.03200
C892        C  0.70416402  0.88897390  0.07250085    -0.11100
C893        C  0.70612363  0.87595165  0.09829586    -0.01100
C894        C  0.69381366  0.87794101  0.12419419    -0.06300
H895        H  0.66563700  0.91793115  0.10078191     0.06200
H896        H  0.71718240  0.86414771  0.09934848     0.09600
Br897      Br  0.69307718  0.92366382  0.17763255    -0.06000
Br898      Br  0.60931975  0.86935925  0.17157916    -0.02900
Br899      Br  0.68471709  0.92416406  0.04242185    -0.00100
Br900      Br  0.69789233  0.86004790  0.15853595    -0.04400
C901        C  0.63979493  0.90105574  0.33028062    -0.11800
C902        C  0.65914745  0.90959773  0.32819067     0.03600
C903        C  0.67344400  0.90585672  0.35147197    -0.12400
C904        C  0.66880176  0.89372588  0.37711104     0.18500
C905        C  0.64932948  0.88550373  0.37936767    -0.09400
C906        C  0.63521519  0.88888826  0.35584259    -0.02400
H907        H  0.68824191  0.91251294  0.34964502     0.05000
C908        C  0.68371242  0.89132050  0.40259084     0.20500
H909        H  0.62032059  0.88248728  0.35802940     0.10200
C910        C  0.68914521  0.90835028  0.41977353    -0.15800
C911        C  0.70116212  0.90658599  0.44623744     0.03200
C912        C  0.70785000  0.88742841  0.45629511    -0.11100
C913        C  0.70351179  0.87051258  0.43803721    -0.01100
C914        C  0.69178415  0.87237999  0.41108468    -0.06300
H915        H  0.68344969  0.92305825  0.41312667     0.06200
H916        H  0.70881933  0.85576397  0.44517103     0.09600
Br917      Br  0.64066095  0.87092423  0.41524242    -0.06000
Br918      Br  0.66712766  0.92566867  0.29343644    -0.02900
Br919      Br  0.70744955  0.93094123  0.46792292    -0.00100
Br920      Br  0.68729422  0.84878133  0.38645555    -0.04400
C921        C  0.87507739  0.33745546  0.17934536    -0.11800
C922        C  0.86097005  0.33893457  0.15487970     0.03600
C923        C  0.86308686  0.35393582  0.13221991    -0.12400
C924        C  0.87926601  0.36742465  0.13304846     0.18500
C925        C  0.89352556  0.36578748  0.15700161    -0.09400
C926        C  0.89137633  0.35094193  0.17981984    -0.02400
H927        H  0.85229185  0.35481672  0.11345760     0.05000
C928        C  0.88144281  0.38269181  0.10821271     0.20500
H929        H  0.90251553  0.34997587  0.19809064     0.10200
C930        C  0.87247894  0.40172897  0.11156794    -0.15800
C931        C  0.87446068  0.41648595  0.08854288     0.03200
C932        C  0.88572723  0.41232099  0.06168119    -0.11100
C933        C  0.89492433  0.39336101  0.05862376    -0.01100
C934        C  0.89261928  0.37852629  0.08140265    -0.06300
H935        H  0.86399552  0.40513762  0.13223840     0.06200
H936        H  0.90349395  0.38988779  0.03805728     0.08800
Br937      Br  0.91631166  0.38339308  0.15906449    -0.06000
Br938      Br  0.83960338  0.31987227  0.14940307    -0.02900
Br939      Br  0.86246856  0.44242842  0.09573605    -0.00100
Br940      Br  0.90447271  0.35255002  0.07467159    -0.04400
C941        C  0.87498443  0.33556391  0.31231209    -0.11800
C942        C  0.86251394  0.35281885  0.31268891     0.03600
C943        C  0.86452618  0.36693490  0.33648746    -0.12400
C944        C  0.87883019  0.36420679  0.36002237     0.18500
C945        C  0.89111583  0.34691201  0.35984289    -0.09400
C946        C  0.88927382  0.33291308  0.33592691    -0.02400
H947        H  0.85513799  0.38031262  0.33636831     0.05000
C948        C  0.88114977  0.37992334  0.38389367     0.20500
H949        H  0.89908085  0.31987229  0.33581391     0.10200
C950        C  0.87494945  0.37599963  0.41426725    -0.15800
C951        C  0.87667339  0.39079740  0.43714103     0.03200
C952        C  0.88468262  0.40977359  0.42963286    -0.11100
C953        C  0.89115825  0.41360586  0.39945521    -0.01100
C954        C  0.88933344  0.39889163  0.37654875    -0.06300
H955        H  0.86876592  0.36140553  0.42014283     0.06200
H956        H  0.89751319  0.42814747  0.39366199     0.09600
Br957      Br  0.91100218  0.34200290  0.39118287    -0.06000
Br958      Br  0.84375376  0.35886212  0.28012015    -0.02900
Br959      Br  0.86874828  0.38426773  0.47853508    -0.00100
Br960      Br  0.89859172  0.40523892  0.33575781    -0.04400
C961        C  0.76115101  0.04850495  0.00931718    -0.11800
C962        C  0.78126793  0.04353787  0.01715659     0.03600
C963        C  0.79661708  0.05805722  0.01430103    -0.12400
C964        C  0.79260735  0.07788764  0.00438548     0.18500
C965        C  0.77260655  0.08314863  0.49853408    -0.09400
C966        C  0.75728532  0.06877784  0.50142906    -0.02400
H967        H  0.81191313  0.05376416  0.01959413     0.05000
C968        C  0.80932560  0.09303166  0.00179809     0.20500
H969        H  0.74200772  0.07363520  0.49688554     0.10200
C970        C  0.81386146  0.10217921  0.47316230    -0.15800
C971        C  0.82831146  0.11767651  0.47079702     0.03200
C972        C  0.83901191  0.12411920  0.99733502    -0.11100
C973        C  0.83515408  0.11406094  0.02546909    -0.01100
C974        C  0.82038545  0.09909233  0.02796333    -0.06300
H975        H  0.80547887  0.09781928  0.45275047     0.06200
H976        H  0.84318261  0.11843182  0.04620973     0.09600
Br977      Br  0.76503890  0.11013788  0.48734591    -0.06000
Br978      Br  0.78934124  0.01747464  0.03152503    -0.02900
Br979      Br  0.83110850  0.13073976  0.43155011    -0.00100
Br980      Br  0.81443068  0.08895854  0.06844951    -0.04400
C981        C  0.86892485  0.25341221  0.17699995    -0.11800
C982        C  0.85471708  0.23767794  0.17717196     0.03600
C983        C  0.85347633  0.22464744  0.15199497    -0.12400
C984        C  0.86619929  0.22712064  0.12665468     0.18500
C985        C  0.88037661  0.24277050  0.12636636    -0.09400
C986        C  0.88174909  0.25574303  0.15160547    -0.02400
H987        H  0.84281911  0.21232747  0.15237575     0.05000
C988        C  0.86539826  0.21243827  0.10153403     0.20500
H989        H  0.89258404  0.26790416  0.15115477     0.10200
C990        C  0.85090100  0.21443951  0.07828216    -0.15800
C991        C  0.85049499  0.20105690  0.05335805     0.03200
C992        C  0.86549329  0.18588803  0.05082209    -0.11100
C993        C  0.87843434  0.18283961  0.07641510    -0.01100
C994        C  0.87874468  0.19613257  0.10114954    -0.06300
H995        H  0.83985124  0.22644067  0.07959965     0.06200
H996        H  0.88822104  0.16990503  0.07811529     0.09600
Br997      Br  0.89794473  0.24695034  0.09187992    -0.06000
Br998      Br  0.83757026  0.23245954  0.21183109    -0.02900
Br999      Br  0.82831115  0.20384452  0.02516709    -0.00100
Br1000     Br  0.89760137  0.19132869  0.13409195    -0.04400
C1001       C  0.86600918  0.17915852  0.43446884    -0.11800
C1002       C  0.84882883  0.18910075  0.42266897     0.03600
C1003       C  0.85017258  0.20108703  0.39604578    -0.12400
C1004       C  0.86862291  0.20403053  0.38108274     0.18500
C1005       C  0.88583064  0.19400453  0.39279099    -0.09400
C1006       C  0.88433353  0.18145098  0.41890077    -0.02400
H1007       H  0.83690146  0.20898179  0.38785849     0.05000
C1008       C  0.86977326  0.21911218  0.35543400     0.20500
H1009       H  0.89780423  0.17450267  0.42826288     0.10200
C1010       C  0.88107212  0.23673399  0.35977729    -0.15800
C1011       C  0.88160799  0.25187561  0.33718173     0.03200
C1012       C  0.87021142  0.24998137  0.30979601    -0.11100
C1013       C  0.85877446  0.23241910  0.30538837    -0.01100
C1014       C  0.85871844  0.21694918  0.32769565    -0.06300
H1015       H  0.88936787  0.23885020  0.38111296     0.06200
H1016       H  0.85022692  0.23052205  0.28425346     0.09600
Br1017     Br  0.91191053  0.19774719  0.37496185    -0.06000
Br1018     Br  0.82338828  0.18785458  0.44322467    -0.02900
Br1019     Br  0.89743214  0.27534991  0.34564261    -0.00100
Br1020     Br  0.84413831  0.19273074  0.31870494    -0.04400
C1021       C  0.89164921  0.56915771  0.30503961    -0.11800
C1022       C  0.87705284  0.55379946  0.30807043     0.03600
C1023       C  0.87841496  0.53989986  0.33241173    -0.12400
C1024       C  0.89424079  0.54067422  0.35387894     0.18500
C1025       C  0.90919146  0.55545995  0.35031113    -0.09400
C1026       C  0.90780889  0.56950390  0.32614716    -0.02400
H1027       H  0.86709482  0.52827318  0.33451511     0.05000
C1028       C  0.89481140  0.52580405  0.37959386     0.20500
H1029       H  0.91925513  0.58101889  0.32427971     0.10200
C1030       C  0.90930204  0.51038290  0.37960222    -0.15800
C1031       C  0.90947111  0.49540902  0.40255507     0.03200
C1032       C  0.89469100  0.49554392  0.42596258    -0.11100
C1033       C  0.88028760  0.51112745  0.42589877    -0.01100
C1034       C  0.88037519  0.52622134  0.40327050    -0.06300
H1035       H  0.92027175  0.50975142  0.36123194     0.06200
H1036       H  0.86891678  0.51168466  0.44372259     0.09600
Br1037     Br  0.93129987  0.55761165  0.37862790    -0.06000
Br1038     Br  0.85561108  0.54997682  0.27882369    -0.02900
Br1039     Br  0.92933367  0.47448224  0.39912700    -0.00100
Br1040     Br  0.86072282  0.54737704  0.40603212    -0.04400
C1041       C  0.89672306  0.49638851  0.05645797    -0.11800
C1042       C  0.89354512  0.51675199  0.04883910     0.03600
C1043       C  0.89419303  0.53135070  0.07199746    -0.12400
C1044       C  0.89801893  0.52580960  0.10268818     0.18500
C1045       C  0.90176240  0.50551177  0.11019146    -0.09400
C1046       C  0.90111897  0.49090338  0.08700459    -0.02400
H1047       H  0.89134265  0.54699835  0.06619956     0.05000
C1048       C  0.89649393  0.54118252  0.12688606     0.20500
H1049       H  0.90357353  0.47520458  0.09291142     0.10200
C1050       C  0.87791276  0.54428322  0.14095547    -0.15800
C1051       C  0.87560476  0.55875452  0.16402122     0.03200
C1052       C  0.89235821  0.57052805  0.17340909    -0.11100
C1053       C  0.91101818  0.56722578  0.15899726    -0.01100
C1054       C  0.91308853  0.55276797  0.13580980    -0.06300
H1055       H  0.86510352  0.53530348  0.13392293     0.06200
H1056       H  0.92405947  0.57601480  0.16549935     0.09600
Br1057     Br  0.90725851  0.49717347  0.15183783    -0.06000
Br1058     Br  0.88841762  0.52522461  0.00717998    -0.02900
Br1059     Br  0.84910557  0.56077721  0.18141138    -0.00100
Br1060     Br  0.93865477  0.54941809  0.11653488    -0.04400
C1061       C  0.83743732  0.77582864  0.99882659    -0.11800
C1062       C  0.81687425  0.77309386  0.49088200     0.03600
C1063       C  0.80294575  0.78879562  0.49469641    -0.12400
C1064       C  0.80812638  0.80692980  0.00882997     0.18500
C1065       C  0.82782250  0.80863784  0.02095897    -0.09400
C1066       C  0.84238837  0.79366475  0.01481598    -0.02400
H1067       H  0.78761465  0.78654615  0.48693047     0.05000
C1068       C  0.79229484  0.82311178  0.01185374     0.20500
H1069       H  0.85758568  0.79600985  0.02298087     0.10200
C1070       C  0.77334847  0.81802123  0.02369915    -0.15800
C1071       C  0.75733275  0.83186548  0.02381242     0.03200
C1072       C  0.76017527  0.85199334  0.01339763    -0.11100
C1073       C  0.77906054  0.85702370  0.50134441    -0.01100
C1074       C  0.79477214  0.84275628  0.49993565    -0.06300
H1075       H  0.77074939  0.80284118  0.03200485     0.06200
H1076       H  0.78162675  0.87209451  0.49257540     0.09600
Br1077     Br  0.83498189  0.82986594  0.04886507    -0.06000
Br1078     Br  0.80547938  0.74773299  0.47838775    -0.02900
Br1079     Br  0.73153890  0.82127799  0.03536102    -0.00100
Br1080     Br  0.81847439  0.85026620  0.47820019    -0.04400
C1081       C  0.88255709  0.65492956  0.30582121    -0.11800
C1082       C  0.89880630  0.66256103  0.32350237     0.03600
C1083       C  0.89499462  0.67590046  0.34775191    -0.12400
C1084       C  0.87535420  0.68198453  0.35451579     0.18500
C1085       C  0.85931965  0.67531086  0.33621884    -0.09400
C1086       C  0.86296525  0.66190656  0.31215361    -0.02400
H1087       H  0.90736707  0.68126158  0.36185409     0.05000
C1088       C  0.87175578  0.69446315  0.38182212     0.20500
H1089       H  0.85024983  0.65671103  0.29868092     0.10200
C1090       C  0.87167672  0.71539333  0.37891709    -0.15800
C1091       C  0.86950773  0.72766741  0.40486002     0.03200
C1092       C  0.86750184  0.71889554  0.43474077    -0.11100
C1093       C  0.86620785  0.69767319  0.43674014    -0.01100
C1094       C  0.86866339  0.68555757  0.41074338    -0.06300
H1095       H  0.87379378  0.72220566  0.35639777     0.06200
H1096       H  0.86380083  0.68996580  0.45824638     0.09600
Br1097     Br  0.83216543  0.68364744  0.34401575    -0.06000
Br1098     Br  0.92643720  0.65533506  0.31697882    -0.02900
Br1099     Br  0.87074491  0.75626384  0.39741338    -0.00100
Br1100     Br  0.86851283  0.65678958  0.41590864    -0.04400
C1101       C  0.88452400  0.65709069  0.17599157    -0.11800
C1102       C  0.89742595  0.67400834  0.17611777     0.03600
C1103       C  0.89544468  0.68883942  0.15319165    -0.12400
C1104       C  0.88057531  0.68734459  0.13026650     0.18500
C1105       C  0.86762126  0.67058449  0.13027121    -0.09400
C1106       C  0.86957368  0.65577421  0.15309259    -0.02400
H1107       H  0.90550735  0.70165187  0.15328518     0.05000
C1108       C  0.87976332  0.70242733  0.10504713     0.20500
H1109       H  0.85960809  0.64288976  0.15249013     0.10200
C1110       C  0.89499244  0.70222978  0.08280488    -0.15800
C1111       C  0.89332050  0.71392846  0.05607213     0.03200
C1112       C  0.87606614  0.72592582  0.05110163    -0.11100
C1113       C  0.86160864  0.72743802  0.07446618    -0.01100
C1114       C  0.86345887  0.71589525  0.10153050    -0.06300
H1115       H  0.90782770  0.69229355  0.08563966     0.06200
H1116       H  0.84843039  0.73681976  0.07102471     0.09600
Br1117     Br  0.84773668  0.66662114  0.09860597    -0.06000
Br1118     Br  0.91710296  0.67849656  0.20793288    -0.02900
Br1119     Br  0.91470004  0.71249975  0.02644382    -0.00100
Br1120     Br  0.84325044  0.71853018  0.13275704    -0.04400
C1121       C  0.86900412  0.73200817  0.96375353     0.86600
C1122       C  0.85231442  0.74790275  0.96624350    -0.53600
C1123       C  0.85357340  0.76041192  0.49151112     0.09500
C1124       C  0.87306505  0.75643300  0.51087279     0.20500
C1125       C  0.88854891  0.74387965  0.96370154    -0.54300
C1126       C  0.89078280  0.75684605  0.48753790     0.09600
C1127       C  0.86917444  0.72140868  0.99552473    -0.53900
C1128       C  0.87171958  0.73406561  0.51997197     0.10200
H1129       H  0.84077168  0.74929532  0.94867107     0.14700
H1130       H  0.87517449  0.76653443  0.53102176     0.00500
H1131       H  0.89987687  0.74203907  0.94588069     0.15000
H1132       H  0.86872812  0.70529605  0.49931952     0.14800
O1133       O  0.90317351  0.63521332  0.70971221    -0.74300
O1134       O  0.90635962  0.59347006  0.77115693    -0.74300
O1135       O  0.90684518  0.59434343  0.70846821    -0.74400
O1136       O  0.90237785  0.63422961  0.77196764    -0.74400
O1137       O  0.86914486  0.63098678  0.77073242    -0.74400
O1138       O  0.87357441  0.59158801  0.70756461    -0.74300
O1139       O  0.87307320  0.59039172  0.76994487    -0.74300
O1140       O  0.86984832  0.63211482  0.70861464    -0.74400
Ni1141     Ni  0.90590591  0.61439833  0.74034804     1.25400
Ni1142     Ni  0.87025583  0.61114471  0.73917294     1.25400
C1143       C  0.88595203  0.64076975  0.69939209     0.87900
C1144       C  0.89024167  0.58495689  0.78067608     0.87800
C1145       C  0.89081127  0.58628126  0.69758093     0.87800
C1146       C  0.88494643  0.63931437  0.78169291     0.88000
C1147       C  0.86721147  0.17223573  0.52247533     0.86600
C1148       C  0.85140000  0.15557071  0.52224378    -0.53600
C1149       C  0.85250019  0.14242860  0.49792572     0.09500
C1150       C  0.86972374  0.14790961  0.97499904     0.20500
C1151       C  0.88750363  0.16128289  0.51963570    -0.54300
C1152       C  0.88890645  0.14853165  0.49538781     0.09600
C1153       C  0.86508719  0.18289276  0.49118889    -0.53900
C1154       C  0.86606792  0.17039390  0.96620512     0.10200
H1155       H  0.84036169  0.15412401  0.54053766     0.14700
H1156       H  0.87115076  0.13753970  0.95503362     0.00500
H1157       H  0.90039148  0.16371266  0.53453556     0.15000
H1158       H  0.86384441  0.19914802  0.48879801     0.14800
O1159       O  0.88777189  0.27180460  0.77524206    -0.74300
O1160       O  0.89012250  0.31392423  0.71445193    -0.74300
O1161       O  0.89019604  0.31251541  0.77712705    -0.74400
O1162       O  0.88743875  0.27333059  0.71252305    -0.74400
O1163       O  0.85395015  0.27522905  0.71335256    -0.74400
O1164       O  0.85676653  0.31499381  0.77683368    -0.74300
O1165       O  0.85669359  0.31585729  0.71392453    -0.74300
O1166       O  0.85431988  0.27388987  0.77581174    -0.74400
Ni1167     Ni  0.89005504  0.29280848  0.74485345     1.25400
Ni1168     Ni  0.85422922  0.29509313  0.74504296     1.25400
C1169       C  0.87076473  0.26594510  0.78569298     0.87900
C1170       C  0.87384075  0.32159683  0.70366344     0.87800
C1171       C  0.87392989  0.32036118  0.78741088     0.87800
C1172       C  0.87018884  0.26784642  0.70241243     0.88000
O1173       O  0.87613072  0.47479589  0.96077551    -0.74300
O1174       O  0.87177828  0.43620692  0.52623385    -0.74300
O1175       O  0.87704503  0.47650859  0.52302106    -0.74400
O1176       O  0.87109289  0.43414640  0.96366330    -0.74400
O1177       O  0.90446350  0.43060923  0.96194053    -0.74400
O1178       O  0.91025630  0.47140253  0.52356774    -0.74300
O1179       O  0.90488684  0.43093708  0.52463782    -0.74300
O1180       O  0.90942721  0.47117150  0.96089452    -0.74400
Ni1181     Ni  0.87280507  0.45559979  0.49340159     1.25400
Ni1182     Ni  0.90843264  0.45088986  0.49270154     1.25400
C1183       C  0.89345007  0.47960346  0.95024256     0.87900
C1184       C  0.88757876  0.42726663  0.53633583     0.87800
C1185       C  0.89463087  0.48072467  0.53313254     0.87800
C1186       C  0.88685645  0.42554255  0.95296994     0.88000
C1187       C  0.71760574  0.88693557  0.54377209     0.86600
C1188       C  0.73275536  0.86928900  0.54310791    -0.53600
C1189       C  0.74423895  0.86808470  0.51704367     0.09500
C1190       C  0.73990247  0.88572517  0.99396067     0.20500
C1191       C  0.73086097  0.90552821  0.53924319    -0.54300
C1192       C  0.74227427  0.90513035  0.51319882     0.09600
C1193       C  0.70568095  0.88472759  0.51337584    -0.53900
C1194       C  0.71713440  0.88485301  0.98745040     0.10200
H1195       H  0.73529586  0.85894785  0.56192988     0.14700
H1196       H  0.74920227  0.88549988  0.97271527     0.00500
H1197       H  0.73082211  0.91825310  0.55504356     0.15000
H1198       H  0.68936888  0.88448816  0.51239143     0.14800
O1199       O  0.62083093  0.92231403  0.79565240    -0.74300
O1200       O  0.58012386  0.92993833  0.73322330    -0.74300
O1201       O  0.58095125  0.93139219  0.79611953    -0.74400
O1202       O  0.61971407  0.92111027  0.73321553    -0.74400
O1203       O  0.61226904  0.88835111  0.73454561    -0.74400
O1204       O  0.57438875  0.89842102  0.79861470    -0.74300
O1205       O  0.57274575  0.89721954  0.73604206    -0.74300
O1206       O  0.61379818  0.88947241  0.79711667    -0.74400
Ni1207     Ni  0.60063168  0.92739127  0.76453663     1.25400
Ni1208     Ni  0.59301645  0.89221914  0.76664865     1.25400
C1209       C  0.62412762  0.90456886  0.80642358     0.87900
C1210       C  0.56990077  0.91468002  0.72411325     0.87800
C1211       C  0.57157225  0.91648211  0.80799408     0.87800
C1212       C  0.62215984  0.90311624  0.72323782     0.88000
C1213       C  0.16130764  0.88437714  0.97968042     0.86600
C1214       C  0.14413576  0.86883191  0.98020690    -0.53600
C1215       C  0.13140368  0.87033024  0.50512735     0.09500
C1216       C  0.13697161  0.88842746  0.52675211     0.20500
C1217       C  0.15052540  0.90459927  0.98070930    -0.54300
C1218       C  0.13780232  0.90708125  0.50474773     0.09600
C1219       C  0.17151811  0.88165904  0.51134613    -0.53900
C1220       C  0.15918988  0.88431286  0.53602067     0.10200
H1221       H  0.14210980  0.85733377  0.96288093     0.14700
H1222       H  0.12719996  0.89036579  0.54713936     0.00500
H1223       H  0.15253954  0.91596349  0.96286826     0.15000
H1224       H  0.18743129  0.87828046  0.51391618     0.14800
O1225       O  0.25950928  0.90876594  0.72565606    -0.74300
O1226       O  0.30003086  0.91453262  0.78861858    -0.74300
O1227       O  0.29979143  0.91430933  0.72606393    -0.74400
O1228       O  0.25987519  0.90917273  0.78833933    -0.74400
O1229       O  0.26539145  0.87597767  0.79008483    -0.74400
O1230       O  0.30336537  0.88081750  0.72490951    -0.74300
O1231       O  0.30555857  0.88137044  0.78746502    -0.74300
O1232       O  0.26316012  0.87537164  0.72749195    -0.74400
Ni1233     Ni  0.27961803  0.91288545  0.75710286     1.25400
Ni1234     Ni  0.28451766  0.87717956  0.75747089     1.25400
C1235       C  0.25449483  0.89110086  0.71641505     0.87900
C1236       C  0.30955557  0.89890320  0.79831367     0.87800
C1237       C  0.30794707  0.89839602  0.71509371     0.87800
C1238       C  0.25659596  0.89182241  0.80015103     0.88000
O1239       O  0.42022493  0.89432027  0.98021416    -0.74300
O1240       O  0.46256583  0.89623923  0.54108830    -0.74300
O1241       O  0.42176519  0.89313738  0.54268577    -0.74400
O1242       O  0.46081600  0.89725657  0.97899821    -0.74400
O1243       O  0.45910854  0.93083320  0.98189298    -0.74400
O1244       O  0.41830455  0.92660330  0.54274495    -0.74300
O1245       O  0.45882418  0.92959619  0.54398748    -0.74300
O1246       O  0.41864412  0.92789506  0.98020666    -0.74400
Ni1247     Ni  0.44140430  0.89411624  0.51059291     1.25400
Ni1248     Ni  0.43859950  0.93001462  0.51232052     1.25400
C1249       C  0.41281682  0.91084774  0.96960769     0.87900
C1250       C  0.46761823  0.91332138  0.55260260     0.87800
C1251       C  0.41334550  0.90919057  0.55279022     0.87800
C1252       C  0.46651447  0.91475766  0.97028665     0.88000
C1253       C  0.71424319  0.01962222  0.97920306     0.86600
C1254       C  0.73099327  0.03556157  0.98133982    -0.53600
C1255       C  0.74447835  0.03315848  0.50532994     0.09500
C1256       C  0.73963351  0.01402028  0.52516499     0.20500
C1257       C  0.72559607  0.99967312  0.97808115    -0.54300
C1258       C  0.73894380  0.99640339  0.50144666     0.09600
C1259       C  0.70443386  0.02031256  0.01114177    -0.53900
C1260       C  0.71740339  0.01689488  0.53518223     0.10200
H1261       H  0.73256650  0.04794422  0.96541128     0.14700
H1262       H  0.74977850  0.01135099  0.54507880     0.00500
H1263       H  0.72356154  0.98908548  0.95917286     0.15000
H1264       H  0.68849309  0.02251303  0.51443251     0.14800
O1265       O  0.57765957  0.98327031  0.78970332    -0.74300
O1266       O  0.61765385  0.98592795  0.72567510    -0.74300
O1267       O  0.61771463  0.99035092  0.78782944    -0.74400
O1268       O  0.57715895  0.97879140  0.72718859    -0.74400
O1269       O  0.57170778  0.01179622  0.72128128    -0.74400
O1270       O  0.61147521  0.02318991  0.78255769    -0.74300
O1271       O  0.61178215  0.01884070  0.72036699    -0.74300
O1272       O  0.57134403  0.01604933  0.78372539    -0.74400
Ni1273     Ni  0.59773606  0.98339338  0.75772014     1.25400
Ni1274     Ni  0.59135017  0.01861653  0.75176728     1.25400
C1275       C  0.56806442  0.99925668  0.79756681     0.87900
C1276       C  0.62162488  0.00291976  0.71291351     0.87800
C1277       C  0.62104540  0.00869828  0.79550526     0.87800
C1278       C  0.56787731  0.99348939  0.71416585     0.88000
C1279       C  0.15726471  0.02517243  0.53378408     0.86600
C1280       C  0.13910651  0.03942522  0.53395771    -0.53600
C1281       C  0.12604192  0.03707435  0.50981999     0.09500
C1282       C  0.13283913  0.02018454  0.98688833     0.20500
C1283       C  0.14865778  0.00388109  0.53116435    -0.54300
C1284       C  0.13583967  0.00111457  0.50711581     0.09600
C1285       C  0.16701422  0.02871849  0.50205232    -0.53900
C1286       C  0.15436663  0.02630486  0.97747708     0.10200
H1287       H  0.13684049  0.05065011  0.55189021     0.14700
H1288       H  0.12233415  0.01797169  0.96719597     0.00500
H1289       H  0.15215679  0.99194045  0.54756224     0.15000
H1290       H  0.18275255  0.03177449  0.49826257     0.14800
O1291       O  0.25339596  0.99629011  0.79161816    -0.74300
O1292       O  0.29280953  0.99000725  0.72742020    -0.74300
O1293       O  0.29374060  0.99011238  0.79007542    -0.74400
O1294       O  0.25257703  0.99600981  0.72909772    -0.74400
O1295       O  0.25784099  0.02911800  0.72795803    -0.74400
O1296       O  0.29789695  0.02349129  0.79071403    -0.74300
O1297       O  0.29799221  0.02313047  0.72792647    -0.74300
O1298       O  0.25760912  0.02960190  0.79026328    -0.74400
Ni1299     Ni  0.27295690  0.99191444  0.75961669     1.25400
Ni1300     Ni  0.27803324  0.02751136  0.75923647     1.25400
C1301       C  0.24881930  0.01400809  0.80121180     0.87900
C1302       C  0.30201401  0.00559375  0.71711812     0.87800
C1303       C  0.30241574  0.00585869  0.80064762     0.87800
C1304       C  0.24867907  0.01345895  0.71799688     0.88000
O1305       O  0.45726568  0.01038152  0.97958072    -0.74300
O1306       O  0.41383161  0.01051606  0.53804860    -0.74300
O1307       O  0.45459398  0.00857432  0.54225477    -0.74400
O1308       O  0.41646940  0.01178891  0.97525452    -0.74400
O1309       O  0.41429544  0.97822364  0.97498187    -0.74400
O1310       O  0.45426311  0.97506293  0.53823985    -0.74300
O1311       O  0.41347110  0.97694535  0.53766503    -0.74300
O1312       O  0.45509352  0.97696352  0.97552121    -0.74400
Ni1313     Ni  0.43562813  0.01158815  0.50887675     1.25400
Ni1314     Ni  0.43419024  0.97568319  0.50653736     1.25400
C1315       C  0.46318306  0.99373139  0.96757521     0.87900
C1316       C  0.40668329  0.99378142  0.54797181     0.87800
C1317       C  0.46090628  0.99115871  0.55086935     0.87800
C1318       C  0.40889375  0.99546037  0.96455284     0.88000
C1319       C  0.00321340  0.73440666  0.53572610     0.86600
C1320       C  0.01939656  0.75079439  0.53610595    -0.53600
C1321       C  0.01990483  0.76330321  0.51068804     0.09500
C1322       C  0.00267659  0.75785195  0.98704257     0.20500
C1323       C  0.98341777  0.74561428  0.53096603    -0.54300
C1324       C  0.98297912  0.75784206  0.50592030     0.09600
C1325       C  0.00668624  0.72328763  0.50476301    -0.53900
C1326       C  0.00606277  0.73551049  0.97941139     0.10200
H1327       H  0.02947069  0.75222781  0.55569764     0.14700
H1328       H  0.00187858  0.76688789  0.96573184     0.00500
H1329       H  0.97060937  0.74389751  0.54624746     0.15000
H1330       H  0.00833721  0.70735585  0.50175033     0.14800
O1331       O  0.97488882  0.59397124  0.72749261    -0.74300
O1332       O  0.97557918  0.63444209  0.79130778    -0.74300
O1333       O  0.97532502  0.63481698  0.72874236    -0.74400
O1334       O  0.97488043  0.59363155  0.79009946    -0.74400
O1335       O  0.00843976  0.59388795  0.79127853    -0.74400
O1336       O  0.00878326  0.63360798  0.72761705    -0.74300
O1337       O  0.00908980  0.63460994  0.78979203    -0.74300
O1338       O  0.00841654  0.59278702  0.72869502    -0.74400
Ni1339     Ni  0.97395308  0.61421660  0.75940849     1.25400
Ni1340     Ni  0.00987333  0.61366759  0.75935029     1.25400
C1341       C  0.99158869  0.58671944  0.71772477     0.87900
C1342       C  0.99252641  0.64134227  0.80073542     0.87800
C1343       C  0.99208359  0.64092731  0.71789356     0.87800
C1344       C  0.99158875  0.58728333  0.80113276     0.88000
C1345       C  0.00395433  0.17588967  0.98308067     0.86600
C1346       C  0.02037775  0.15949306  0.98653534    -0.53600
C1347       C  0.01698060  0.14555349  0.50963348     0.09500
C1348       C  0.99670183  0.14956814  0.52678095     0.20500
C1349       C  0.98485925  0.16366189  0.97800541    -0.54300
C1350       C  0.98062905  0.15014609  0.50063486     0.09600
C1351       C  0.00222348  0.18502396  0.01524534    -0.53900
C1352       C  0.99806964  0.17160151  0.53802774     0.10200
H1353       H  0.03318638  0.15827326  0.97140165     0.14700
H1354       H  0.99321696  0.13924360  0.54601793     0.00500
H1355       H  0.97538310  0.16556478  0.95768423     0.15000
H1356       H  0.00362211  0.20114935  0.51981724     0.14800
O1357       O  0.97927833  0.31467134  0.78725167    -0.74300
O1358       O  0.97899402  0.27219153  0.72757514    -0.74300
O1359       O  0.98202703  0.27411045  0.79003459    -0.74400
O1360       O  0.97667209  0.31307997  0.72491949    -0.74400
O1361       O  0.01003234  0.31500031  0.72198519    -0.74400
O1362       O  0.01536272  0.27603353  0.78601490    -0.74300
O1363       O  0.01233827  0.27437201  0.72336895    -0.74300
O1364       O  0.01255868  0.31654589  0.78416695    -0.74400
Ni1365     Ni  0.97803904  0.29340733  0.75749624     1.25400
Ni1366     Ni  0.01375114  0.29550257  0.75371720     1.25400
C1367       C  0.99592788  0.32257343  0.79586157     0.87900
C1368       C  0.99555760  0.26635619  0.71555608     0.87800
C1369       C  0.99969342  0.26918870  0.79933994     0.87800
C1370       C  0.99257277  0.32072560  0.71312631     0.88000
O1371       O  0.00750463  0.47519279  0.53793061    -0.74300
O1372       O  0.00823846  0.43446643  0.97504723    -0.74300
O1373       O  0.00759582  0.47497341  0.97532264    -0.74400
O1374       O  0.00805798  0.43436363  0.53785551    -0.74400
O1375       O  0.97454961  0.43386382  0.53764961    -0.74400
O1376       O  0.97408070  0.47443695  0.97524638    -0.74300
O1377       O  0.97471282  0.43377101  0.97518055    -0.74300
O1378       O  0.97404566  0.47471284  0.53779269    -0.74400
Ni1379     Ni  0.00900305  0.45476979  0.50658821     1.25400
Ni1380     Ni  0.97310883  0.45420867  0.50644745     1.25400
C1381       C  0.99066787  0.48167796  0.54833563     0.87900
C1382       C  0.99158714  0.42772996  0.96435787     0.87800
C1383       C  0.99068734  0.48137217  0.96500810     0.87800
C1384       C  0.99140989  0.42759430  0.54832727     0.88000
O1385       O  0.11976612  0.97520259  0.97753875    -0.74300
O1386       O  0.07997175  0.93376454  0.97214389    -0.74300
O1387       O  0.08014929  0.97427471  0.97182748    -0.74400
O1388       O  0.12028964  0.93345309  0.97844558    -0.74400
O1389       O  0.11638410  0.93167216  0.52951017    -0.74400
O1390       O  0.07812492  0.97498646  0.52325953    -0.74300
O1391       O  0.07623481  0.93451235  0.52334849    -0.74300
O1392       O  0.11814718  0.97352132  0.52899549    -0.74400
Ni1393     Ni  0.10032747  0.95404214  0.97318208     1.25400
Ni1394     Ni  0.09727491  0.95364041  0.52816877     1.25400
C1395       C  0.12431109  0.98218908  0.50426094     0.87900
C1396       C  0.07101121  0.92793737  0.49675855     0.87800
C1397       C  0.07283321  0.98165815  0.49667272     0.87800
C1398       C  0.12427841  0.92498270  0.50461246     0.88000
O1399       O  0.91440719  0.13215986  0.96572920    -0.74300
O1400       O  0.95753423  0.09401640  0.95966050    -0.74300
O1401       O  0.91680835  0.09260913  0.95661284    -0.74400
O1402       O  0.95581371  0.13378939  0.97002925    -0.74400
O1403       O  0.95594696  0.12746611  0.52069972    -0.74400
O1404       O  0.91485880  0.08820065  0.50757863    -0.74300
O1405       O  0.95534192  0.08769879  0.51036283    -0.74300
O1406       O  0.91459566  0.12801840  0.51692036    -0.74400
Ni1407     Ni  0.93624589  0.11343098  0.96119275     1.25400
Ni1408     Ni  0.93511481  0.10774475  0.51574088     1.25400
C1409       C  0.90686722  0.13563803  0.49230089     0.87900
C1410       C  0.96350153  0.08459277  0.48406117     0.87800
C1411       C  0.90901614  0.08391725  0.48014250     0.87800
C1412       C  0.96318517  0.13655923  0.49722162     0.88000
O1413       O  0.91353375  0.77865458  0.51413758    -0.74300
O1414       O  0.95577856  0.81737207  0.51286340    -0.74300
O1415       O  0.91615325  0.81857417  0.50430256    -0.74400
O1416       O  0.95476759  0.77737817  0.52148129    -0.74400
O1417       O  0.96023846  0.77379214  0.97097504    -0.74400
O1418       O  0.91948887  0.81262444  0.95368975    -0.74300
O1419       O  0.95923267  0.81358438  0.96183819    -0.74300
O1420       O  0.91897351  0.77269971  0.96418842    -0.74400
Ni1421     Ni  0.93488168  0.79797281  0.51507952     1.25400
Ni1422     Ni  0.93955808  0.79275932  0.96087651     1.25400
C1423       C  0.90872648  0.76989622  0.48893606     0.87900
C1424       C  0.96383927  0.82243279  0.48724750     0.87800
C1425       C  0.91226941  0.82284128  0.47605023     0.87800
C1426       C  0.96505429  0.77010818  0.49902333     0.88000
O1427       O  0.75651737  0.92795277  0.97660037    -0.74300
O1428       O  0.79229627  0.97133599  0.95624552    -0.74300
O1429       O  0.79477724  0.93108297  0.95822961    -0.74400
O1430       O  0.75358220  0.96933359  0.97400417    -0.74400
O1431       O  0.76365289  0.97316324  0.52264984    -0.74400
O1432       O  0.80329352  0.93185338  0.50790324    -0.74300
O1433       O  0.80244861  0.97191766  0.50543015    -0.74300
O1434       O  0.76445308  0.93165272  0.52624319    -0.74400
Ni1435     Ni  0.77375719  0.94986969  0.96457415     1.25400
Ni1436     Ni  0.78365171  0.95215095  0.51742465     1.25400
C1437       C  0.75507675  0.92234647  0.50474093     0.87900
C1438       C  0.80395146  0.97793576  0.47753827     0.87800
C1439       C  0.80629274  0.92554581  0.48022532     0.87800
C1440       C  0.75260843  0.97862124  0.49975989     0.88000
C1441       C  0.90009978  0.84049425  0.46895921    -0.11800
C1442       C  0.90431755  0.85914836  0.48292326     0.03600
C1443       C  0.89148530  0.87537204  0.47779180    -0.12400
C1444       C  0.87398189  0.87294035  0.46012537     0.18500
C1445       C  0.87136757  0.85519481  0.94252171    -0.09400
C1446       C  0.88450490  0.83906117  0.94719967    -0.02400
H1447       H  0.89418085  0.88941142  0.48989025     0.05000
C1448       C  0.85736912  0.88728464  0.46495417     0.20500
H1449       H  0.88196644  0.82500397  0.93507353     0.10200
C1450       C  0.84836582  0.89712446  0.93972269    -0.15800
C1451       C  0.83135655  0.90920701  0.94371404     0.03200
C1452       C  0.82354991  0.91219468  0.47380697    -0.11100
C1453       C  0.83302649  0.90287210  0.49899323    -0.01100
C1454       C  0.84962841  0.89046595  0.49490001    -0.06300
H1455       H  0.85448438  0.89513993  0.91676804     0.06200
H1456       H  0.82727665  0.90488621  0.52217468     0.09600
Br1457     Br  0.84999737  0.85141211  0.91316544    -0.06000
Br1458     Br  0.92706308  0.86324043  0.50965294    -0.02900
Br1459     Br  0.82018770  0.92086184  0.90671958    -0.00100
Br1460     Br  0.85998573  0.87736567  0.53130413    -0.04400
C1461       C  0.89257877  0.06925172  0.47602568    -0.11800
C1462       C  0.88775652  0.06046360  0.94705231     0.03600
C1463       C  0.87200459  0.04668434  0.94502059    -0.12400
C1464       C  0.86125049  0.04111943  0.47135915     0.18500
C1465       C  0.86581163  0.04988372  0.50004361    -0.09400
C1466       C  0.88114263  0.06402027  0.50209450    -0.02400
H1467       H  0.86872136  0.03953159  0.92307678     0.05000
C1468       C  0.84691534  0.02450163  0.46920754     0.20500
H1469       H  0.88429440  0.07067277  0.52443185     0.10200
C1470       C  0.85268620  0.00580513  0.48128862    -0.15800
C1471       C  0.83910790  0.98996033  0.48228139     0.03200
C1472       C  0.81945371  0.99276761  0.47077637    -0.11100
C1473       C  0.81396083  0.01115314  0.95684042    -0.01100
C1474       C  0.82759268  0.02712069  0.95607588    -0.06300
H1475       H  0.86765342  0.00374401  0.49077919     0.06200
H1476       H  0.79878645  0.01342258  0.94831069     0.09600
Br1477     Br  0.85216926  0.04240314  0.53732939    -0.06000
Br1478     Br  0.90272428  0.06498690  0.90982134    -0.02900
Br1479     Br  0.84814769  0.96491268  0.49996555    -0.00100
Br1480     Br  0.81898723  0.05235061  0.93890645    -0.04400
C1481       C  0.98007154  0.07005485  0.48214021    -0.11800
C1482       C  0.99815653  0.07472501  0.96656578     0.03600
C1483       C  0.01415966  0.06104581  0.96773206    -0.12400
C1484       C  0.01229660  0.04283191  0.48447406     0.18500
C1485       C  0.99426960  0.03831405  0.49972004    -0.09400
C1486       C  0.97832562  0.05190293  0.49846869    -0.02400
H1487       H  0.02822439  0.06472883  0.95655269     0.05000
C1488       C  0.02923807  0.02874304  0.48617899     0.20500
H1489       H  0.96454647  0.04837398  0.51057505     0.10200
C1490       C  0.04021531  0.02734842  0.51375222    -0.15800
C1491       C  0.05440082  0.01205709  0.51804734     0.03200
C1492       C  0.05807833  0.99817186  0.49392478    -0.11100
C1493       C  0.04766029  0.00047387  0.96560870    -0.01100
C1494       C  0.03319968  0.01546603  0.96168019    -0.06300
H1495       H  0.03712917  0.03774459  0.53245201     0.06200
H1496       H  0.05021956  0.99000758  0.94682325     0.09600
Br1497     Br  0.99085683  0.01378949  0.52269045    -0.06000
Br1498     Br  0.00268165  0.10030383  0.94695215    -0.02900
Br1499     Br  0.06764654  0.01099977  0.55754883    -0.00100
Br1500     Br  0.01822618  0.01615653  0.92370619    -0.04400
C1501       C  0.05448954  0.91332631  0.49428923    -0.11800
C1502       C  0.03824875  0.91327076  0.51523093     0.03600
C1503       C  0.02351760  0.89846956  0.51280929    -0.12400
C1504       C  0.02475444  0.88346925  0.49016578     0.18500
C1505       C  0.04062966  0.88381833  0.96868503    -0.09400
C1506       C  0.05520839  0.89881702  0.97077447    -0.02400
H1507       H  0.01104210  0.89855916  0.52883677     0.05000
C1508       C  0.00925285  0.86774320  0.48935455     0.20500
H1509       H  0.06763150  0.89862653  0.95466394     0.10200
C1510       C  0.99648383  0.86642485  0.96345588    -0.15800
C1511       C  0.98140203  0.85187685  0.96221777     0.03200
C1512       C  0.97890965  0.83850300  0.48744389    -0.11100
C1513       C  0.99140492  0.84023297  0.51347052    -0.01100
C1514       C  0.00659110  0.85457010  0.51449960    -0.06300
H1515       H  0.99814304  0.87689661  0.94441085     0.06200
H1516       H  0.98975623  0.82996599  0.53278161     0.09600
Br1517     Br  0.04365951  0.86364268  0.93728012    -0.06000
Br1518     Br  0.03467177  0.93325037  0.54688098    -0.02900
Br1519     Br  0.96402551  0.85191728  0.92666063    -0.00100
Br1520     Br  0.02365074  0.85494478  0.55034960    -0.04400
C1521       C  0.99554938  0.33875387  0.81972475    -0.11800
C1522       C  0.01297489  0.34552428  0.83551561     0.03600
C1523       C  0.01123136  0.35989263  0.85901654    -0.12400
C1524       C  0.99255362  0.36822274  0.86689839     0.18500
C1525       C  0.97538150  0.36246629  0.85003722    -0.09400
C1526       C  0.97691439  0.34762415  0.82723898    -0.02400
H1527       H  0.02462225  0.36464248  0.87131140     0.05000
C1528       C  0.99166921  0.38350127  0.89185381     0.20500
H1529       H  0.96339310  0.34329645  0.81494003     0.10200
C1530       C  0.00314158  0.40111047  0.88892299    -0.15800
C1531       C  0.00346719  0.41558452  0.91237696     0.03200
C1532       C  0.99180029  0.41277499  0.93917125    -0.11100
C1533       C  0.98021254  0.39525492  0.94205337    -0.01100
C1534       C  0.98046685  0.38042315  0.91907573    -0.06300
H1535       H  0.01197253  0.40356262  0.86828083     0.06200
H1536       H  0.97150289  0.39275793  0.96280756     0.09600
Br1537     Br  0.94978533  0.37538680  0.85562444    -0.06000
Br1538     Br  0.03972765  0.33619050  0.82685747    -0.02900
Br1539     Br  0.01953960  0.43916978  0.90594010    -0.00100
Br1540     Br  0.96668258  0.35562205  0.92731562    -0.04400
C1541       C  0.99123804  0.33632409  0.68883666    -0.11800
C1542       C  0.97540469  0.35054646  0.68732650     0.03600
C1543       C  0.97559301  0.36547291  0.66446563    -0.12400
C1544       C  0.99130910  0.36652555  0.64303801     0.18500
C1545       C  0.00713290  0.35249300  0.64464391    -0.09400
C1546       C  0.00698881  0.33758313  0.66735693    -0.02400
H1547       H  0.96353592  0.37646787  0.66354576     0.05000
C1548       C  0.99097912  0.38232978  0.61909272     0.20500
H1549       H  0.01928210  0.32684040  0.66811590     0.10200
C1550       C  0.00509934  0.39793549  0.62038718    -0.15800
C1551       C  0.00553898  0.41283157  0.59755365     0.03200
C1552       C  0.99152687  0.41226900  0.57298839    -0.11100
C1553       C  0.97713818  0.39682493  0.57213529    -0.01100
C1554       C  0.97690245  0.38183284  0.59481630    -0.06300
H1555       H  0.01582508  0.39849755  0.63926952     0.06200
H1556       H  0.96631417  0.39615935  0.55339361     0.09600
Br1557     Br  0.02904087  0.35278603  0.61591255    -0.06000
Br1558     Br  0.95388329  0.35139054  0.71676706    -0.02900
Br1559     Br  0.02482990  0.43410231  0.60227552    -0.00100
Br1560     Br  0.95782133  0.36038520  0.59099036    -0.04400
C1561       C  0.00208210  0.25582518  0.82629239    -0.11800
C1562       C  0.01717530  0.25922791  0.84875922     0.03600
C1563       C  0.01853314  0.24671282  0.87459820    -0.12400
C1564       C  0.00527845  0.23059106  0.87838583     0.18500
C1565       C  0.99028377  0.22706191  0.85594780    -0.09400
C1566       C  0.98869109  0.23975449  0.83027636    -0.02400
H1567       H  0.02979186  0.24976407  0.89212615     0.05000
C1568       C  0.00654664  0.21827918  0.90667643     0.20500
H1569       H  0.97706552  0.23694739  0.81323214     0.10200
C1570       C  0.99051025  0.21883500  0.92734576    -0.15800
C1571       C  0.99008893  0.20614067  0.95296666     0.03200
C1572       C  0.00598174  0.19209212  0.95816824    -0.11100
C1573       C  0.02292537  0.19308142  0.93876193    -0.01100
C1574       C  0.02327836  0.20599816  0.91324554    -0.06300
H1575       H  0.97795757  0.22892391  0.92304797     0.06200
H1576       H  0.03596613  0.18375588  0.94258280     0.09600
Br1577     Br  0.97193605  0.20486360  0.85898365    -0.06000
Br1578     Br  0.03550009  0.28148323  0.84698597    -0.02900
Br1579     Br  0.96668201  0.20857310  0.97878740    -0.00100
Br1580     Br  0.04658631  0.20552627  0.88727648    -0.04400
C1581       C  0.99518311  0.25036042  0.69197046    -0.11800
C1582       C  0.98690863  0.23124453  0.69817300     0.03600
C1583       C  0.98670598  0.21642347  0.67510789    -0.12400
C1584       C  0.99434684  0.22052278  0.64562199     0.18500
C1585       C  0.00184068  0.23991604  0.63908380    -0.09400
C1586       C  0.00257082  0.25452447  0.66236117    -0.02400
H1587       H  0.98072772  0.20162540  0.68023840     0.05000
C1588       C  0.99460478  0.20450204  0.62184422     0.20500
H1589       H  0.00845783  0.26934949  0.65712479     0.10200
C1590       C  0.97682945  0.19973433  0.60595575    -0.15800
C1591       C  0.97730046  0.18714868  0.57997071     0.03200
C1592       C  0.99568475  0.17877115  0.57008813    -0.11100
C1593       C  0.01315397  0.18237299  0.58738055    -0.01100
C1594       C  0.01276481  0.19523665  0.61296398    -0.06300
H1595       H  0.96280178  0.20681689  0.61258942     0.06200
H1596       H  0.02743402  0.17643671  0.57950000     0.09600
Br1597     Br  0.01043323  0.24731964  0.59833629    -0.06000
Br1598     Br  0.97648963  0.22448175  0.73813282    -0.02900
Br1599     Br  0.95292864  0.18353799  0.55680983    -0.00100
Br1600     Br  0.03768906  0.20110095  0.63345425    -0.04400
C1601       C  0.99155198  0.57154482  0.69280844    -0.11800
C1602       C  0.99368451  0.55081996  0.69905902     0.03600
C1603       C  0.99396860  0.53691845  0.67467292    -0.12400
C1604       C  0.99233311  0.54333389  0.64379751     0.18500
C1605       C  0.99005049  0.56414735  0.63763570    -0.09400
C1606       C  0.98971249  0.57800538  0.66207818    -0.02400
H1607       H  0.99547284  0.52099512  0.67981440     0.05000
C1608       C  0.99200447  0.52791627  0.61879747     0.20500
H1609       H  0.98796474  0.59392994  0.65708041     0.10200
C1610       C  0.97629106  0.51384705  0.61802087    -0.15800
C1611       C  0.97531578  0.49894380  0.59514739     0.03200
C1612       C  0.99061558  0.49753467  0.57265580    -0.11100
C1613       C  0.00663972  0.51132295  0.57398378    -0.01100
C1614       C  0.00745294  0.52635386  0.59672035    -0.06300
H1615       H  0.96468110  0.51441786  0.63548073     0.06200
H1616       H  0.01868103  0.51040146  0.55726494     0.09600
Br1617     Br  0.98634993  0.57446016  0.59653823    -0.06000
Br1618     Br  0.99585980  0.54082324  0.74052350    -0.02900
Br1619     Br  0.95333865  0.48031151  0.59739177    -0.00100
Br1620     Br  0.03063251  0.54349573  0.59777530    -0.04400
C1621       C  0.99139344  0.57191749  0.82529738    -0.11800
C1622       C  0.00324866  0.57386923  0.85214364     0.03600
C1623       C  0.00324443  0.55848504  0.87411862    -0.12400
C1624       C  0.99143101  0.54129648  0.86967760     0.18500
C1625       C  0.97924631  0.53954403  0.84328624    -0.09400
C1626       C  0.97919749  0.55491153  0.82132658    -0.02400
H1627       H  0.01223732  0.56002157  0.89490586     0.05000
C1628       C  0.99125250  0.52574091  0.89359163     0.20500
H1629       H  0.96986221  0.55344415  0.80088660     0.10200
C1630       C  0.97665721  0.52680516  0.91667406    -0.15800
C1631       C  0.97589548  0.51226661  0.93987996     0.03200
C1632       C  0.99044807  0.49674283  0.94061616    -0.11100
C1633       C  0.00513040  0.49582549  0.91741190    -0.01100
C1634       C  0.00534640  0.50997101  0.89357601    -0.06300
H1635       H  0.96579049  0.53899123  0.91656221     0.06200
H1636       H  0.01623154  0.48386836  0.91748727     0.09600
Br1637     Br  0.96259513  0.51640265  0.83648166    -0.06000
Br1638     Br  0.01835619  0.59783052  0.86097844    -0.02900
Br1639     Br  0.95513862  0.51506781  0.97032630    -0.00100
Br1640     Br  0.02458215  0.50690363  0.86096847    -0.04400
C1641       C  0.99238241  0.65682864  0.69413451    -0.11800
C1642       C  0.97634537  0.65976269  0.67306003     0.03600
C1643       C  0.97787568  0.67458640  0.65031389    -0.12400
C1644       C  0.99544457  0.68598145  0.64731461     0.18500
C1645       C  0.01128806  0.68333504  0.66844549    -0.09400
C1646       C  0.00957230  0.66900658  0.69184761    -0.02400
H1647       H  0.96584560  0.67634384  0.63355978     0.05000
C1648       C  0.99807962  0.69827931  0.61944232     0.20500
H1649       H  0.02201387  0.66700277  0.70779213     0.10200
C1650       C  0.99709702  0.71927762  0.62121128    -0.15800
C1651       C  0.99908787  0.73109841  0.59462741     0.03200
C1652       C  0.00255383  0.72182987  0.56542262    -0.11100
C1653       C  0.00394304  0.70057816  0.56442452    -0.01100
C1654       C  0.00145207  0.68894819  0.59091455    -0.06300
H1655       H  0.99438353  0.72645123  0.64325391     0.06200
H1656       H  0.00643834  0.69248863  0.54373032     0.09600
Br1657     Br  0.03615701  0.69768635  0.66464599    -0.06000
Br1658     Br  0.95319249  0.64253198  0.67109177    -0.02900
Br1659     Br  0.99592386  0.75972809  0.60025896    -0.00100
Br1660     Br  0.00253693  0.66011266  0.58674197    -0.04400
C1661       C  0.00555048  0.72685519  0.94782794    -0.11800
C1662       C  0.02152440  0.71495065  0.93673948     0.03600
C1663       C  0.01888192  0.70312928  0.91024093    -0.12400
C1664       C  0.00046598  0.70308759  0.89428231     0.18500
C1665       C  0.98499084  0.71611351  0.90409098    -0.09400
C1666       C  0.98760868  0.72787561  0.93071447    -0.02400
H1667       H  0.03101143  0.69341822  0.90264484     0.05000
C1668       C  0.99726535  0.68823584  0.86910777     0.20500
H1669       H  0.97523161  0.73702535  0.93895139     0.10200
C1670       C  0.98484015  0.67151091  0.87448799    -0.15800
C1671       C  0.98280656  0.65620981  0.85236139     0.03200
C1672       C  0.99326224  0.65755627  0.82416418    -0.11100
C1673       C  0.00551118  0.67440032  0.81869889    -0.01100
C1674       C  0.00750588  0.68968645  0.84080676    -0.06300
H1675       H  0.97718680  0.67005602  0.89642512     0.06200
H1676       H  0.01359923  0.67565907  0.79710249     0.09600
Br1677     Br  0.95996338  0.71796614  0.88211185    -0.06000
Br1678     Br  0.04708971  0.71428075  0.95737524    -0.02900
Br1679     Br  0.96726434  0.63291269  0.86308655    -0.00100
Br1680     Br  0.02415846  0.71238789  0.83127396    -0.04400
C1681       C  0.31718126  0.00330641  0.69200125    -0.11800
C1682       C  0.33324317  0.01702857  0.68803428     0.03600
C1683       C  0.34669986  0.01460505  0.66344233    -0.12400
C1684       C  0.34469961  0.99868007  0.64236826     0.18500
C1685       C  0.32898594  0.98475699  0.64652941    -0.09400
C1686       C  0.31544625  0.98713019  0.67109167    -0.02400
H1687       H  0.35898197  0.02515910  0.66087367     0.05000
C1688       C  0.35955414  0.99668953  0.61685213     0.20500
H1689       H  0.30328603  0.97642649  0.67350279     0.10200
C1690       C  0.37394199  0.98122196  0.61798926    -0.15800
C1691       C  0.38924049  0.97993544  0.59584090     0.03200
C1692       C  0.39030123  0.99412832  0.57150023    -0.11100
C1693       C  0.37568094  0.00949052  0.57026484    -0.01100
C1694       C  0.36047082  0.01085308  0.59260073    -0.06300
H1695       H  0.37366856  0.97047308  0.63684964     0.06200
H1696       H  0.37608606  0.02054429  0.55183773     0.09600
Br1697     Br  0.32501280  0.96268040  0.61861915    -0.06000
Br1698     Br  0.33856173  0.03876256  0.71618257    -0.02900
Br1699     Br  0.40936663  0.95978416  0.60226345    -0.00100
Br1700     Br  0.34110525  0.03221274  0.58896696    -0.04400
C1701       C  0.31797721  0.00359103  0.82448196    -0.11800
C1702       C  0.31725793  0.01474607  0.85209992     0.03600
C1703       C  0.33259260  0.01252901  0.87398743    -0.12400
C1704       C  0.34870696  0.99930043  0.86874234     0.18500
C1705       C  0.34908330  0.98767175  0.84154992    -0.09400
C1706       C  0.33374852  0.98989487  0.81963890    -0.02400
H1707       H  0.33196197  0.02114780  0.89521884     0.05000
C1708       C  0.36465360  0.99766547  0.89238371     0.20500
H1709       H  0.33423127  0.98104912  0.79861591     0.10200
C1710       C  0.36015801  0.98850302  0.92067895    -0.15800
C1711       C  0.37443022  0.98777434  0.94439988     0.03200
C1712       C  0.39354272  0.99636068  0.94003329    -0.11100
C1713       C  0.39803459  0.00564099  0.91176608    -0.01100
C1714       C  0.38374251  0.00631151  0.88793569    -0.06300
H1715       H  0.34537741  0.98215901  0.92445126     0.06200
H1716       H  0.41269859  0.01229111  0.90819495     0.09600
Br1717     Br  0.36987889  0.96827252  0.83371767    -0.06000
Br1718     Br  0.29503758  0.03214338  0.86180550    -0.02900
Br1719     Br  0.36658316  0.97625504  0.98309559    -0.00100
Br1720     Br  0.39060758  0.01979154  0.85018634    -0.04400
C1721       C  0.10748732  0.04998195  0.50780751    -0.11800
C1722       C  0.10300391  0.06211323  0.98199932     0.03600
C1723       C  0.08738932  0.07647921  0.98370470    -0.12400
C1724       C  0.07612248  0.07945225  0.51103322     0.18500
C1725       C  0.08011861  0.06648847  0.53624118    -0.09400
C1726       C  0.09567275  0.05220387  0.53448594    -0.02400
H1727       H  0.08439537  0.08600169  0.96385950     0.05000
C1728       C  0.06119670  0.09649941  0.51316411     0.20500
H1729       H  0.09908428  0.04318089  0.55471550     0.10200
C1730       C  0.04106441  0.09273779  0.52098702    -0.15800
C1731       C  0.02671880  0.10837896  0.52292828     0.03200
C1732       C  0.03196239  0.12847102  0.51493947    -0.11100
C1733       C  0.05256695  0.13209213  0.00859749    -0.01100
C1734       C  0.06697544  0.11659370  0.00780926    -0.06300
H1735       H  0.03639235  0.07740971  0.52562931     0.06200
H1736       H  0.05761695  0.14732324  0.00422234     0.09600
Br1737     Br  0.06598808  0.06846410  0.57470421    -0.06000
Br1738     Br  0.11877059  0.06151649  0.94506523    -0.02900
Br1739     Br  0.00076051  0.10049778  0.53721196    -0.00100
Br1740     Br  0.09437761  0.12415617  0.00031824    -0.04400
C1741       C  0.17029087  0.02728747  0.56271716    -0.11800
C1742       C  0.16224202  0.02261861  0.59228175     0.03600
C1743       C  0.17476578  0.02198612  0.61811671    -0.12400
C1744       C  0.19518237  0.02622024  0.61551413     0.18500
C1745       C  0.20314859  0.03213237  0.58701393    -0.09400
C1746       C  0.19073769  0.03286281  0.56100676    -0.02400
H1747       H  0.16864714  0.01764245  0.64031475     0.05000
C1748       C  0.20815176  0.02298474  0.64242262     0.20500
H1749       H  0.19762502  0.03752050  0.53975145     0.10200
C1750       C  0.21604839  0.00370707  0.64749666    -0.15800
C1751       C  0.22868177  0.99988768  0.67261898     0.03200
C1752       C  0.23375126  0.01581773  0.69295811    -0.11100
C1753       C  0.22518330  0.03500273  0.68812008    -0.01100
C1754       C  0.21237825  0.03861758  0.66315851    -0.06300
H1755       H  0.21248106  0.99160998  0.63159130     0.06200
H1756       H  0.22855300  0.04733347  0.70367616     0.09600
Br1757     Br  0.23109596  0.03855168  0.58235727    -0.06000
Br1758     Br  0.13447834  0.01602560  0.59949714    -0.02900
Br1759     Br  0.23886884  0.97281606  0.67634713    -0.00100
Br1760     Br  0.20106486  0.06504890  0.65803249    -0.04400
C1761       C  0.23276425  0.01666417  0.82453967    -0.11800
C1762       C  0.23047750  0.00331111  0.84965939     0.03600
C1763       C  0.21464308  0.00603451  0.87045823    -0.12400
C1764       C  0.20088842  0.02199242  0.86699743     0.18500
C1765       C  0.20347892  0.03568519  0.84239214    -0.09400
C1766       C  0.21926367  0.03290602  0.82144188    -0.02400
H1767       H  0.21335587  0.99590827  0.89000853     0.05000
C1768       C  0.18532722  0.02493995  0.89115187     0.20500
H1769       H  0.22084265  0.04337423  0.80237858     0.10200
C1770       C  0.18612298  0.04227904  0.90961749    -0.15800
C1771       C  0.17443906  0.04391102  0.93625897     0.03200
C1772       C  0.16201150  0.02774535  0.94537370    -0.11100
C1773       C  0.15984513  0.01118876  0.92554467    -0.01100
C1774       C  0.17136348  0.00969773  0.89856275    -0.06300
H1775       H  0.19661860  0.05420393  0.90415151     0.06200
H1776       H  0.15020147  0.99876958  0.93205464     0.09600
Br1777     Br  0.18570797  0.05817053  0.83599315    -0.06000
Br1778     Br  0.24947320  0.98220726  0.85842223    -0.02900
Br1779     Br  0.17650452  0.06835454  0.95984330    -0.00100
Br1780     Br  0.16808298  0.98621558  0.87321855    -0.04400
C1781       C  0.55291137  0.99833321  0.82283799    -0.11800
C1782       C  0.55617469  0.98691829  0.85000803     0.03600
C1783       C  0.54140258  0.98625882  0.87307017    -0.12400
C1784       C  0.52313393  0.99671623  0.86984083     0.18500
C1785       C  0.52011653  0.00861654  0.84317706    -0.09400
C1786       C  0.53488272  0.00933338  0.82005247    -0.02400
H1787       H  0.54430787  0.97764976  0.89379034     0.05000
C1788       C  0.50780787  0.99554013  0.89497194     0.20500
H1789       H  0.53218873  0.01845805  0.79967322     0.10200
C1790       C  0.51154351  0.00505608  0.92341813    -0.15800
C1791       C  0.49733703  0.00453033  0.94739699     0.03200
C1792       C  0.47910474  0.99395426  0.94348022    -0.11100
C1793       C  0.47568015  0.98390621  0.91541757    -0.01100
C1794       C  0.48964912  0.98483649  0.89121539    -0.06300
H1795       H  0.52550936  0.01311258  0.92687589     0.06200
H1796       H  0.46177420  0.97573414  0.91196088     0.09600
Br1797     Br  0.49642195  0.02481643  0.83791777    -0.06000
Br1798     Br  0.58108772  0.97315641  0.85809531    -0.02900
Br1799     Br  0.50396125  0.01772619  0.98551702    -0.00100
Br1800     Br  0.48301129  0.97140595  0.85337803    -0.04400
C1801       C  0.55246949  0.98957802  0.69052576    -0.11800
C1802       C  0.55449137  0.99739164  0.66048776     0.03600
C1803       C  0.53876064  0.99551094  0.63928893    -0.12400
C1804       C  0.52061914  0.98636882  0.64771260     0.18500
C1805       C  0.51868236  0.97818889  0.67769542    -0.09400
C1806       C  0.53471304  0.97960555  0.69870375    -0.02400
H1807       H  0.54047881  0.00173514  0.61629252     0.05000
C1808       C  0.50410214  0.98622019  0.62465955     0.20500
H1809       H  0.53298589  0.97370386  0.72189421     0.10200
C1810       C  0.50667474  0.97521553  0.59729322    -0.15800
C1811       C  0.49284615  0.97672522  0.57301775     0.03200
C1812       C  0.47596682  0.98946956  0.57585341    -0.11100
C1813       C  0.47341475  0.00062352  0.60311070    -0.01100
C1814       C  0.48733174  0.99912465  0.62739933    -0.06300
H1815       H  0.51982285  0.96582383  0.59440618     0.06200
H1816       H  0.46058210  0.01058966  0.60547975     0.09600
Br1817     Br  0.49439010  0.96572354  0.69162395    -0.06000
Br1818     Br  0.57842982  0.01084753  0.64732773    -0.02900
Br1819     Br  0.49880857  0.96252282  0.53550057    -0.00100
Br1820     Br  0.48350840  0.01600999  0.66287771    -0.04400
C1821       C  0.69940830  0.02090099  0.95189738    -0.11800
C1822       C  0.68345970  0.00673711  0.94889792     0.03600
C1823       C  0.67166074  0.00634930  0.92212748    -0.12400
C1824       C  0.67535835  0.01955743  0.89767281     0.18500
C1825       C  0.69072163  0.03380787  0.90032443    -0.09400
C1826       C  0.70248947  0.03447491  0.92708482    -0.02400
H1827       H  0.65972303  0.99534330  0.92006187     0.05000
C1828       C  0.66295694  0.01806233  0.86955226     0.20500
H1829       H  0.71445617  0.04528970  0.92701578     0.10200
C1830       C  0.64698091  0.03155723  0.86541577    -0.15800
C1831       C  0.63353790  0.02928166  0.84080237     0.03200
C1832       C  0.63595420  0.01303558  0.81996083    -0.11100
C1833       C  0.65250779  0.00000916  0.82358471    -0.01100
C1834       C  0.66605061  0.00252573  0.84802125    -0.06300
H1835       H  0.64461711  0.04355496  0.88199894     0.06200
H1836       H  0.65483476  0.98771317  0.80751362     0.09600
Br1837     Br  0.69690020  0.05194328  0.86713020    -0.06000
Br1838     Br  0.67732139  0.98646678  0.97926262    -0.02900
Br1839     Br  0.61141856  0.04793650  0.83885670    -0.00100
Br1840     Br  0.68854358  0.98445825  0.85127502    -0.04400
C1841       C  0.63767118  0.00435474  0.68909268    -0.11800
C1842       C  0.65628509  0.99414182  0.69192248     0.03600
C1843       C  0.67111015  0.99646466  0.66910971    -0.12400
C1844       C  0.66776730  0.00872341  0.64306350     0.18500
C1845       C  0.64891432  0.01834744  0.63980224    -0.09400
C1846       C  0.63438749  0.01654703  0.66300202    -0.02400
H1847       H  0.68539324  0.98876623  0.67181821     0.05000
C1848       C  0.68362436  0.01061871  0.61886568     0.20500
H1849       H  0.62021735  0.02440082  0.66024242     0.10200
C1850       C  0.68961177  0.99345292  0.60227249    -0.15800
C1851       C  0.70244334  0.99509233  0.57672668     0.03200
C1852       C  0.70927238  0.01413869  0.56691637    -0.11100
C1853       C  0.70448559  0.03111811  0.58479884    -0.01100
C1854       C  0.69219919  0.02940193  0.61102782    -0.06300
H1855       H  0.68366199  0.97881251  0.60845187     0.06200
H1856       H  0.70976595  0.04584917  0.57775299     0.09600
Br1857     Br  0.64159364  0.03294586  0.60308760    -0.06000
Br1858     Br  0.66283085  0.97786086  0.72729144    -0.02900
Br1859     Br  0.70940964  0.97103315  0.55483520    -0.00100
Br1860     Br  0.68761738  0.05304583  0.63556810    -0.04400
C1861       C  0.32486951  0.90115778  0.82312350    -0.11800
C1862       C  0.34358306  0.89105271  0.82230587     0.03600
C1863       C  0.35736394  0.89340603  0.84668364    -0.12400
C1864       C  0.35274899  0.90547135  0.87233970     0.18500
C1865       C  0.33409010  0.91550621  0.87322202    -0.09400
C1866       C  0.32045916  0.91349064  0.84862959    -0.02400
H1867       H  0.37173338  0.88571136  0.84570099     0.05000
C1868       C  0.36758189  0.90731785  0.89793298     0.20500
H1869       H  0.30611721  0.92123000  0.84979536     0.10200
C1870       C  0.38287401  0.92177232  0.89601403    -0.15800
C1871       C  0.39751303  0.92344991  0.91930924     0.03200
C1872       C  0.39725139  0.91017012  0.94490812    -0.11100
C1873       C  0.38184130  0.89577694  0.94677868    -0.01100
C1874       C  0.36695203  0.89448330  0.92383544    -0.06300
H1875       H  0.38350352  0.93170271  0.87617127     0.06200
H1876       H  0.38121693  0.88565341  0.96640899     0.09600
Br1877     Br  0.32646491  0.93174887  0.90789672    -0.06000
Br1878     Br  0.35151444  0.87465301  0.78789896    -0.02900
Br1879     Br  0.41810705  0.94335530  0.91383543    -0.00100
Br1880     Br  0.34587996  0.87511198  0.92887446    -0.04400
C1881       C  0.39780554  0.90766373  0.57656698    -0.11800
C1882       C  0.38024543  0.91959499  0.57523617     0.03600
C1883       C  0.36615506  0.91832481  0.59884535    -0.12400
C1884       C  0.36917553  0.90513314  0.62362583     0.18500
C1885       C  0.38639513  0.89284631  0.62474241    -0.09400
C1886       C  0.40063157  0.89419870  0.60124271    -0.02400
H1887       H  0.35263031  0.92742182  0.59766141     0.05000
C1888       C  0.35358616  0.90366816  0.64722032     0.20500
H1889       H  0.41400608  0.88486263  0.60237934     0.10200
C1890       C  0.33660366  0.89191170  0.64103568    -0.15800
C1891       C  0.32138262  0.89016861  0.66288690     0.03200
C1892       C  0.32316913  0.90039288  0.69120439    -0.11100
C1893       C  0.33993271  0.91255798  0.69706671    -0.01100
C1894       C  0.35520579  0.91419798  0.67526709    -0.06300
H1895       H  0.33521081  0.88412314  0.61913708     0.06200
H1896       H  0.34128041  0.92051228  0.71883501     0.09600
Br1897     Br  0.39072640  0.87381777  0.65753545    -0.06000
Br1898     Br  0.37402106  0.93688223  0.54095015    -0.02900
Br1899     Br  0.29801593  0.87465935  0.65239153    -0.00100
Br1900     Br  0.37790100  0.93092457  0.68458742    -0.04400
C1901       C  0.03649108  0.77912162  0.50759068    -0.11800
C1902       C  0.03490265  0.79741702  0.99039503     0.03600
C1903       C  0.05047200  0.81183096  0.99163622    -0.12400
C1904       C  0.06805140  0.80872376  0.50935136     0.18500
C1905       C  0.06986576  0.79050051  0.52578976    -0.09400
C1906       C  0.05471347  0.77591921  0.52399735    -0.02400
H1907       H  0.04889852  0.82571258  0.97865644     0.05000
C1908       C  0.08440761  0.82428077  0.50963361     0.20500
H1909       H  0.05749751  0.76189399  0.53598875     0.10200
C1910       C  0.08062191  0.84376314  0.52105107    -0.15800
C1911       C  0.09556267  0.85883244  0.52108013     0.03200
C1912       C  0.11507383  0.85462594  0.50964469    -0.11100
C1913       C  0.11879995  0.83467807  0.99918162    -0.01100
C1914       C  0.10375113  0.81995568  0.99806797    -0.06300
H1915       H  0.06581279  0.84737227  0.52969088     0.06200
H1916       H  0.13357643  0.83048684  0.99099406     0.09600
Br1917     Br  0.09218008  0.78509010  0.55290863    -0.06000
Br1918     Br  0.01266486  0.80457932  0.96457514    -0.02900
Br1919     Br  0.08759242  0.88478612  0.53573054    -0.00100
Br1920     Br  0.11011588  0.79492107  0.97799464    -0.04400
C1921       C  0.24270213  0.89019054  0.82609920    -0.11800
C1922       C  0.24762380  0.87863141  0.85242594     0.03600
C1923       C  0.23412518  0.87758379  0.87686926    -0.12400
C1924       C  0.21586899  0.88802994  0.87553896     0.18500
C1925       C  0.21112017  0.90000892  0.84971405    -0.09400
C1926       C  0.22456261  0.90101091  0.82512541    -0.02400
H1927       H  0.23793688  0.86875075  0.89715322     0.05000
C1928       C  0.20219806  0.88651193  0.90177635     0.20500
H1929       H  0.22082672  0.91018359  0.80517065     0.10200
C1930       C  0.20543323  0.89881970  0.92735245    -0.15800
C1931       C  0.19278297  0.89783833  0.95285479     0.03200
C1932       C  0.17634720  0.88408835  0.95310788    -0.11100
C1933       C  0.17366040  0.87144161  0.92719296    -0.01100
C1934       C  0.18644901  0.87257809  0.90181535    -0.06300
H1935       H  0.21781367  0.90940599  0.92731264     0.06200
H1936       H  0.16151351  0.86084393  0.92559208     0.09600
Br1937     Br  0.18670398  0.91542105  0.84741767    -0.06000
Br1938     Br  0.27312172  0.86533979  0.85744673    -0.02900
Br1939     Br  0.19900281  0.91631562  0.98586730    -0.00100
Br1940     Br  0.18192757  0.85482557  0.86750679    -0.04400
C1941       C  0.23883598  0.88902287  0.69205967    -0.11800
C1942       C  0.22417507  0.87364808  0.69268886     0.03600
C1943       C  0.20964907  0.87249119  0.66916512    -0.12400
C1944       C  0.20964078  0.88612932  0.64432996     0.18500
C1945       C  0.22450867  0.90123585  0.64340223    -0.09400
C1946       C  0.23868735  0.90274639  0.66730693    -0.02400
H1947       H  0.19830273  0.86083130  0.67019582     0.05000
C1948       C  0.19431142  0.88421558  0.61934624     0.20500
H1949       H  0.25002411  0.91441328  0.66610183     0.10200
C1950       C  0.18072608  0.90009189  0.61376363    -0.15800
C1951       C  0.16783396  0.89986570  0.58799681     0.03200
C1952       C  0.16788030  0.88318349  0.56779216    -0.11100
C1953       C  0.18044715  0.86668564  0.57484191    -0.01100
C1954       C  0.19379845  0.86722257  0.59988125    -0.06300
H1955       H  0.18095075  0.91324052  0.62859148     0.06200
H1956       H  0.18097707  0.85388660  0.55931808     0.09600
Br1957     Br  0.22691639  0.91938733  0.60904104    -0.06000
Br1958     Br  0.22259123  0.85435510  0.72566085    -0.02900
Br1959     Br  0.15264063  0.92382435  0.57960279    -0.00100
Br1960     Br  0.21272114  0.84547544  0.60401138    -0.04400
C1961       C  0.48389413  0.91454458  0.57600862    -0.11800
C1962       C  0.48148889  0.92612705  0.60299985     0.03600
C1963       C  0.49712433  0.92763465  0.62437462    -0.12400
C1964       C  0.51549128  0.91785088  0.61970469     0.18500
C1965       C  0.51813621  0.90627352  0.59270716    -0.09400
C1966       C  0.50235418  0.90465767  0.57110467    -0.02400
H1967       H  0.49465683  0.93590084  0.64547811     0.05000
C1968       C  0.52998651  0.91743648  0.64581455     0.20500
H1969       H  0.50452021  0.89572938  0.55043511     0.10200
C1970       C  0.52459569  0.90655170  0.67227788    -0.15800
C1971       C  0.53694461  0.90620237  0.69843193     0.03200
C1972       C  0.55525772  0.91684015  0.69848796    -0.11100
C1973       C  0.56035052  0.92839643  0.67242050    -0.01100
C1974       C  0.54791332  0.92873038  0.64614909    -0.06300
H1975       H  0.51052533  0.89836389  0.67265192     0.06200
H1976       H  0.57432570  0.93673650  0.67213696     0.09600
Br1977     Br  0.54257714  0.89171719  0.58524634    -0.06000
Br1978     Br  0.45660968  0.93870411  0.61365985    -0.02900
Br1979     Br  0.52735779  0.89191547  0.73400840    -0.00100
Br1980     Br  0.55611544  0.94476171  0.61160950    -0.04400
C1981       C  0.48217792  0.91657169  0.94700615    -0.11800
C1982       C  0.48123839  0.90582990  0.91905518     0.03600
C1983       C  0.49676111  0.90780318  0.89771451    -0.12400
C1984       C  0.51317761  0.92038729  0.90394533     0.18500
C1985       C  0.51384629  0.93145941  0.93159647    -0.09400
C1986       C  0.49833167  0.92952032  0.95287659    -0.02400
H1987       H  0.49605981  0.89950512  0.87618409     0.05000
C1988       C  0.52939368  0.92151004  0.88116848     0.20500
H1989       H  0.49899901  0.93795040  0.97427049     0.10200
C1990       C  0.52601118  0.93200584  0.85352463    -0.15800
C1991       C  0.54010702  0.93142396  0.82975870     0.03200
C1992       C  0.55764441  0.91979483  0.83348135    -0.11100
C1993       C  0.56124924  0.90966200  0.86140126    -0.01100
C1994       C  0.54730955  0.91054565  0.88532934    -0.06300
H1995       H  0.51206786  0.94005943  0.85004621     0.06200
H1996       H  0.57475822  0.90067053  0.86430557     0.09600
Br1997     Br  0.53545914  0.94937314  0.94136525    -0.06000
Br1998     Br  0.45851785  0.88947951  0.90815612    -0.02900
Br1999     Br  0.53392256  0.94518916  0.79185955    -0.00100
Br2000     Br  0.55273267  0.89550512  0.92235676    -0.04400
C2001       C  0.63678531  0.89955969  0.69849303    -0.11800
C2002       C  0.63295411  0.88608611  0.67395262     0.03600
C2003       C  0.64696806  0.88413187  0.65017843    -0.12400
C2004       C  0.66485655  0.89520874  0.65068168     0.18500
C2005       C  0.66889513  0.90827361  0.67543567    -0.09400
C2006       C  0.65480472  0.91050634  0.69895865    -0.02400
H2007       H  0.64381995  0.87411641  0.63100704     0.05000
C2008       C  0.67880749  0.89334354  0.62460791     0.20500
H2009       H  0.65798971  0.92077700  0.71779650     0.10200
C2010       C  0.67673416  0.90640649  0.59954198    -0.15800
C2011       C  0.68914124  0.90461254  0.57373420     0.03200
C2012       C  0.70400276  0.88913416  0.57228468    -0.11100
C2013       C  0.70602766  0.87631032  0.59830027    -0.01100
C2014       C  0.69369514  0.87841543  0.62415827    -0.06300
H2015       H  0.66529424  0.91807081  0.60005171     0.06200
H2016       H  0.71717101  0.86459337  0.59956243     0.09600
Br2017     Br  0.69345940  0.92321379  0.67813179    -0.06000
Br2018     Br  0.60843222  0.87101863  0.67042571    -0.02900
Br2019     Br  0.68441093  0.92404161  0.54164346    -0.00100
Br2020     Br  0.69782201  0.86074924  0.65876391    -0.04400
C2021       C  0.63974298  0.90128180  0.83041149    -0.11800
C2022       C  0.65902652  0.90999998  0.82856100     0.03600
C2023       C  0.67327448  0.90628375  0.85191550    -0.12400
C2024       C  0.66866080  0.89398551  0.87737594     0.18500
C2025       C  0.64926277  0.88556176  0.87938363    -0.09400
C2026       C  0.63518870  0.88894987  0.85580276    -0.02400
H2027       H  0.68802040  0.91307573  0.85027164     0.05000
C2028       C  0.68353427  0.89157122  0.90289852     0.20500
H2029       H  0.62034660  0.88240175  0.85780156     0.10200
C2030       C  0.68881845  0.90855972  0.92028857    -0.15800
C2031       C  0.70089812  0.90676800  0.94667906     0.03200
C2032       C  0.70775582  0.88761888  0.95649116    -0.11100
C2033       C  0.70356224  0.87076100  0.93803150    -0.01100
C2034       C  0.69180054  0.87266504  0.91112195    -0.06300
H2035       H  0.68299999  0.92325314  0.91381929     0.06200
H2036       H  0.70902431  0.85602703  0.94495953     0.09600
Br2037     Br  0.64064271  0.87064276  0.91495864    -0.06000
Br2038     Br  0.66700256  0.92625914  0.79401251    -0.02900
Br2039     Br  0.70714588  0.93107468  0.96851981    -0.00100
Br2040     Br  0.68757550  0.84917755  0.88613600    -0.04400
C2041       C  0.87514875  0.33735023  0.67917604    -0.11800
C2042       C  0.86101570  0.33884270  0.65474476     0.03600
C2043       C  0.86311608  0.35384640  0.63207845    -0.12400
C2044       C  0.87929050  0.36734312  0.63288244     0.18500
C2045       C  0.89356226  0.36570718  0.65682010    -0.09400
C2046       C  0.89144400  0.35084311  0.67962261    -0.02400
H2047       H  0.85230121  0.35473365  0.61334401     0.05000
C2048       C  0.88143703  0.38263634  0.60806422     0.20500
H2049       H  0.90259382  0.34988144  0.69787825     0.10200
C2050       C  0.87241844  0.40164736  0.61143336    -0.15800
C2051       C  0.87439309  0.41643738  0.58845158     0.03200
C2052       C  0.88569899  0.41233293  0.56160566    -0.11100
C2053       C  0.89494530  0.39339628  0.55853058    -0.01100
C2054       C  0.89265736  0.37853215  0.58127398    -0.06300
H2055       H  0.86390666  0.40501489  0.63209189     0.06200
H2056       H  0.90354880  0.38996556  0.53798106     0.08800
Br2057     Br  0.91629962  0.38337330  0.65891940    -0.06000
Br2058     Br  0.83960773  0.31981758  0.64935431    -0.02900
Br2059     Br  0.86235286  0.44234944  0.59570442    -0.00100
Br2060     Br  0.90460476  0.35260187  0.57452816    -0.04400
C2061       C  0.87512590  0.33555941  0.81220655    -0.11800
C2062       C  0.86268062  0.35283099  0.81257419     0.03600
C2063       C  0.86466833  0.36691565  0.83642057    -0.12400
C2064       C  0.87892052  0.36413533  0.86001693     0.18500
C2065       C  0.89117303  0.34681655  0.85985367    -0.09400
C2066       C  0.88935987  0.33285244  0.83588437    -0.02400
H2067       H  0.85530489  0.38031075  0.83629008     0.05000
C2068       C  0.88124514  0.37983794  0.88390894     0.20500
H2069       H  0.89913812  0.31979012  0.83578638     0.10200
C2070       C  0.87500737  0.37592049  0.91426654    -0.15800
C2071       C  0.87674248  0.39070984  0.93715260     0.03200
C2072       C  0.88479652  0.40967205  0.92967062    -0.11100
C2073       C  0.89131449  0.41349384  0.89951223    -0.01100
C2074       C  0.88948153  0.39878807  0.87659567    -0.06300
H2075       H  0.86878697  0.36133858  0.92012008     0.06200
H2076       H  0.89770195  0.42802425  0.89373809     0.09600
Br2077     Br  0.91097108  0.34182405  0.89129568    -0.06000
Br2078     Br  0.84398737  0.35892920  0.77993866    -0.02900
Br2079     Br  0.86877548  0.38418482  0.97852965    -0.00100
Br2080     Br  0.89879486  0.40512350  0.83582990    -0.04400
C2081       C  0.76127338  0.04844078  0.50940981    -0.11800
C2082       C  0.78140245  0.04343674  0.51710049     0.03600
C2083       C  0.79676237  0.05793680  0.51416038    -0.12400
C2084       C  0.79274654  0.07777954  0.50430870     0.18500
C2085       C  0.77247485  0.08322027  0.99844365    -0.09400
C2086       C  0.75716263  0.06882650  0.00124206    -0.02400
H2087       H  0.81206588  0.05362365  0.51934702     0.05000
C2088       C  0.80945946  0.09291915  0.50170274     0.20500
H2089       H  0.74189294  0.07365996  0.99657964     0.10200
C2090       C  0.81373009  0.10229688  0.97326183    -0.15800
C2091       C  0.82821002  0.11776594  0.97088765     0.03200
C2092       C  0.83907812  0.12406226  0.49725944    -0.11100
C2093       C  0.83522382  0.11400604  0.52539661    -0.01100
C2094       C  0.82048329  0.09901240  0.52788010    -0.06300
H2095       H  0.80533369  0.09795599  0.95285371     0.06200
H2096       H  0.84322772  0.11839984  0.54614805     0.09600
Br2097     Br  0.76489794  0.11019387  0.98717788    -0.06000
Br2098     Br  0.78945873  0.01735903  0.53142131    -0.02900
Br2099     Br  0.83100695  0.13083238  0.93164515    -0.00100
Br2100     Br  0.81449882  0.08889098  0.56836320    -0.04400
C2101       C  0.86895693  0.25322212  0.67717361    -0.11800
C2102       C  0.85471495  0.23751670  0.67739277     0.03600
C2103       C  0.85343257  0.22446897  0.65223601    -0.12400
C2104       C  0.86615840  0.22688982  0.62688472     0.18500
C2105       C  0.88039156  0.24248802  0.62658148    -0.09400
C2106       C  0.88179515  0.25548247  0.65178496    -0.02400
H2107       H  0.84273975  0.21218070  0.65263883     0.05000
C2108       C  0.86530271  0.21221977  0.60174871     0.20500
H2109       H  0.89266558  0.26761136  0.65130541     0.10200
C2110       C  0.85086997  0.21433268  0.57842462    -0.15800
C2111       C  0.85048235  0.20101975  0.55341026     0.03200
C2112       C  0.86544628  0.18581639  0.55085481    -0.11100
C2113       C  0.87830318  0.18264704  0.57651384    -0.01100
C2114       C  0.87859209  0.19586820  0.60134095    -0.06300
H2115       H  0.83986337  0.22637338  0.57974683     0.06200
H2116       H  0.88804754  0.16967619  0.57817199     0.09600
Br2117     Br  0.89800487  0.24656909  0.59212317    -0.06000
Br2118     Br  0.83758092  0.23235902  0.71208936    -0.02900
Br2119     Br  0.82835833  0.20394474  0.52514215    -0.00100
Br2120     Br  0.89736213  0.19092717  0.63435101    -0.04400
C2121       C  0.86604942  0.17914692  0.93448713    -0.11800
C2122       C  0.84888186  0.18908270  0.92263603     0.03600
C2123       C  0.85025853  0.20107740  0.89602806    -0.12400
C2124       C  0.86872866  0.20403640  0.88112776     0.18500
C2125       C  0.88592671  0.19401959  0.89289387    -0.09400
C2126       C  0.88439702  0.18145876  0.91899023    -0.02400
H2127       H  0.83699430  0.20896839  0.88780576     0.05000
C2128       C  0.86989767  0.21911769  0.85547790     0.20500
H2129       H  0.89785842  0.17451971  0.92840043     0.10200
C2130       C  0.88125442  0.23670696  0.85978708    -0.15800
C2131       C  0.88179805  0.25185244  0.83719667     0.03200
C2132       C  0.87033800  0.25000355  0.80986496    -0.11100
C2133       C  0.85884421  0.23247631  0.80549407    -0.01100
C2134       C  0.85879002  0.21699630  0.82778031    -0.06300
H2135       H  0.88958921  0.23879675  0.88109279     0.06200
H2136       H  0.85025179  0.23061115  0.78439542     0.09600
Br2137     Br  0.91203535  0.19777517  0.87516854    -0.06000
Br2138     Br  0.82341564  0.18782930  0.94311511    -0.02900
Br2139     Br  0.89772711  0.27526523  0.84559369    -0.00100
Br2140     Br  0.84413824  0.19281926  0.81879910    -0.04400
C2141       C  0.89155417  0.56901918  0.80491675    -0.11800
C2142       C  0.87691466  0.55370470  0.80800172     0.03600
C2143       C  0.87828666  0.53978290  0.83231773    -0.12400
C2144       C  0.89416297  0.54049130  0.85370686     0.18500
C2145       C  0.90915496  0.55522798  0.85007250    -0.09400
C2146       C  0.90776368  0.56929170  0.82593709    -0.02400
H2147       H  0.86693125  0.52819474  0.83446692     0.05000
C2148       C  0.89473851  0.52562282  0.87943242     0.20500
H2149       H  0.91924441  0.58076922  0.82403081     0.10200
C2150       C  0.90924979  0.51021803  0.87947616    -0.15800
C2151       C  0.90945566  0.49528207  0.90249036     0.03200
C2152       C  0.89469012  0.49543384  0.92591965    -0.11100
C2153       C  0.88026828  0.51099924  0.92582066    -0.01100
C2154       C  0.88032079  0.52605861  0.90313762    -0.06300
H2155       H  0.92021799  0.50957814  0.86110157     0.06200
H2156       H  0.86890744  0.51156813  0.94365797     0.09600
Br2157     Br  0.93133153  0.55729920  0.87827908    -0.06000
Br2158     Br  0.85539019  0.54997515  0.77886824    -0.02900
Br2159     Br  0.92935764  0.47438782  0.89913688    -0.00100
Br2160     Br  0.86065786  0.54720503  0.90589183    -0.04400
C2161       C  0.89681992  0.49652177  0.55630882    -0.11800
C2162       C  0.89406445  0.51690767  0.54844752     0.03600
C2163       C  0.89467060  0.53157479  0.57151130    -0.12400
C2164       C  0.89805285  0.52607321  0.60233896     0.18500
C2165       C  0.90143313  0.50574953  0.61007646    -0.09400
C2166       C  0.90081271  0.49107456  0.58699348    -0.02400
H2167       H  0.89211837  0.54724324  0.56552790     0.05000
C2168       C  0.89644330  0.54151591  0.62641893     0.20500
H2169       H  0.90297437  0.47536205  0.59307676     0.10200
C2170       C  0.87781656  0.54465227  0.64033296    -0.15800
C2171       C  0.87547875  0.55905254  0.66349795     0.03200
C2172       C  0.89224261  0.57072903  0.67312067    -0.11100
C2173       C  0.91093512  0.56742547  0.65880763    -0.01100
C2174       C  0.91304114  0.55302291  0.63555312    -0.06300
H2175       H  0.86500734  0.53572124  0.63315456     0.06200
H2176       H  0.92398872  0.57613989  0.66548737     0.09600
Br2177     Br  0.90641864  0.49747403  0.65189853    -0.06000
Br2178     Br  0.88953494  0.52530729  0.50659634    -0.02900
Br2179     Br  0.84894141  0.56107837  0.68074609    -0.00100
Br2180     Br  0.93868881  0.54956389  0.61659463    -0.04400
C2181       C  0.83744990  0.77583705  0.49903908    -0.11800
C2182       C  0.81687857  0.77308040  0.99056423     0.03600
C2183       C  0.80293741  0.78877372  0.99433565    -0.12400
C2184       C  0.80816628  0.80695297  0.50916124     0.18500
C2185       C  0.82787863  0.80864492  0.52123381    -0.09400
C2186       C  0.84243180  0.79366617  0.51502892    -0.02400
H2187       H  0.78762068  0.78652017  0.98650490     0.05000
C2188       C  0.79235013  0.82315187  0.51221507     0.20500
H2189       H  0.85764202  0.79599970  0.52314515     0.10200
C2190       C  0.77341854  0.81808506  0.52413945    -0.15800
C2191       C  0.75739624  0.83192434  0.52422221     0.03200
C2192       C  0.76021685  0.85203197  0.51370050    -0.11100
C2193       C  0.77902282  0.85700149  0.00108496    -0.01100
C2194       C  0.79472994  0.84273463  0.99965137    -0.06300
H2195       H  0.77082989  0.80291761  0.53250726     0.06200
H2196       H  0.78160124  0.87209059  0.99239792     0.09600
Br2197     Br  0.83506898  0.82985294  0.54915552    -0.06000
Br2198     Br  0.80551104  0.74773358  0.97793579    -0.02900
Br2199     Br  0.73161566  0.82133335  0.53582550    -0.00100
Br2200     Br  0.81845356  0.85028967  0.97801930    -0.04400
C2201       C  0.88255138  0.65487264  0.80591151    -0.11800
C2202       C  0.89883616  0.66254323  0.82347682     0.03600
C2203       C  0.89506892  0.67590939  0.84770229    -0.12400
C2204       C  0.87544104  0.68199405  0.85453235     0.18500
C2205       C  0.85937330  0.67530888  0.83631744    -0.09400
C2206       C  0.86297188  0.66186258  0.81229378    -0.02400
H2207       H  0.90746641  0.68129254  0.86173258     0.05000
C2208       C  0.87188762  0.69447111  0.88184126     0.20500
H2209       H  0.85023289  0.65665174  0.79888820     0.10200
C2210       C  0.87184937  0.71539927  0.87894009    -0.15800
C2211       C  0.86967787  0.72767016  0.90487917     0.03200
C2212       C  0.86763853  0.71889418  0.93475183    -0.11100
C2213       C  0.86633233  0.69767416  0.93675297    -0.01100
C2214       C  0.86877545  0.68556158  0.91075382    -0.06300
H2215       H  0.87398355  0.72221107  0.85642415     0.06200
H2216       H  0.86390804  0.68996927  0.95825762     0.09600
Br2217     Br  0.83224170  0.68370046  0.84416642    -0.06000
Br2218     Br  0.92646341  0.65536180  0.81680571    -0.02900
Br2219     Br  0.87093863  0.75626701  0.89743266    -0.00100
Br2220     Br  0.86855665  0.65679177  0.91589255    -0.04400
C2221       C  0.88444374  0.65712858  0.67613230    -0.11800
C2222       C  0.89737354  0.67402438  0.67619232     0.03600
C2223       C  0.89540776  0.68882553  0.65321602    -0.12400
C2224       C  0.88052474  0.68732329  0.63031044     0.18500
C2225       C  0.86753830  0.67058838  0.63039305    -0.09400
C2226       C  0.86947836  0.65580826  0.65325883    -0.02400
H2227       H  0.90549093  0.70162172  0.65325756     0.05000
C2228       C  0.87971409  0.70238194  0.60505491     0.20500
H2229       H  0.85949202  0.64293903  0.65270579     0.10200
C2230       C  0.89495088  0.70217950  0.58282258    -0.15800
C2231       C  0.89329165  0.71388113  0.55608854     0.03200
C2232       C  0.87603806  0.72587380  0.55109674    -0.11100
C2233       C  0.86156817  0.72738332  0.57444360    -0.01100
C2234       C  0.86341259  0.71585114  0.60151904    -0.06300
H2235       H  0.90778873  0.69224908  0.58567650     0.06200
H2236       H  0.84839277  0.73676723  0.57098979     0.09600
Br2237     Br  0.84762189  0.66660897  0.59878087    -0.06000
Br2238     Br  0.91706763  0.67852322  0.70797885    -0.02900
Br2239     Br  0.91469887  0.71249197  0.52650523    -0.00100
Br2240     Br  0.84321675  0.71852487  0.63275810    -0.04400
loop_ 
_geom_bond_atom_site_label_1 
_geom_bond_atom_site_label_2 
_geom_bond_distance 
_geom_bond_site_symmetry_2 
_ccdc_geom_bond_type 
C1            C2   1.533       .  S
C1            C7   1.544       .  S
C1            C5   1.523       .  S
C1         C1092   1.531       .  S
C2            H9   1.082       .  S
C2         C1123   1.372       .  D
C3            C4   1.563   1_556  S
C3         C1122   1.372       .  D
C3         C1061   1.516       .  S
C4            C8   1.538       .  S
C4            C6   1.555   1_554  S
C4           H10   1.109       .  S
C5           H11   1.087       .  S
C5         C1126   1.355       .  D
C6         C1125   1.355       .  D
C6          C303   1.478       .  S
C7         H1132   1.080       .  S
C7         C1128   1.363       .  D
C8         C1127   1.363   1_554  D
C8         C1112   1.479       .  S
H12        C1127   1.081       .  S
O13         Ni21   1.921       .  S
O13          C23   1.281       .  A
O14         Ni21   1.924       .  S
O14          C24   1.283       .  A
O15         Ni21   1.919       .  S
O15          C25   1.283       .  A
O16         Ni21   1.914       .  S
O16          C26   1.280       .  A
O17         Ni22   1.899       .  S
O17          C26   1.279       .  A
O18         Ni22   1.899       .  S
O18          C25   1.276       .  A
O19         Ni22   1.923       .  S
O19          C24   1.282       .  A
O20         Ni22   1.919       .  S
O20          C23   1.282       .  A
Ni21        Ni22   2.383       .  S
C23        C1101   1.482       .  S
C24        C1021   1.490       .  S
C25        C1052   1.482       .  S
C26        C1081   1.481       .  S
C27          C28   1.528       .  S
C27          C33   1.533   1_554  S
C27          C31   1.536       .  S
C27         C992   1.529       .  S
C28          H35   1.086       .  S
C28          C29   1.369   1_554  D
C29        C1150   1.565       .  S
C29         C972   1.513       .  S
C30          C34   1.557       .  S
C30        C1149   1.565       .  S
C30        C1152   1.549       .  S
C30          H36   1.109       .  S
C31          H37   1.083       .  S
C31          C32   1.352   1_554  D
C32        C1150   1.549       .  S
C32         C289   1.474       .  S
C33          H38   1.086       .  S
C33        C1154   1.365       .  D
C34        C1153   1.365       .  D
C34        C1001   1.490       .  S
O39         Ni47   1.922       .  S
O39          C49   1.282       .  A
O40         Ni47   1.920       .  S
O40          C50   1.282       .  A
O41         Ni47   1.914       .  S
O41          C51   1.281       .  A
O42         Ni47   1.913       .  S
O42          C52   1.281       .  A
O43         Ni48   1.903       .  S
O43          C52   1.278       .  A
O44         Ni48   1.915       .  S
O44          C51   1.280       .  A
O45         Ni48   1.933       .  S
O45          C50   1.284       .  A
O46         Ni48   1.936       .  S
O46          C49   1.285       .  A
Ni47        Ni48   2.388       .  S
C49        C1012   1.487       .  S
C50         C921   1.490       .  S
C51         C941   1.475       .  S
C52         C981   1.464       .  S
O53       Ni1181   1.918       .  S
O53          C63   1.282       .  A
O54         Ni61   1.917   1_554  S
O54          C64   1.281       .  A
O55         Ni61   1.910   1_554  S
O55          C65   1.279       .  A
O56       Ni1181   1.918       .  S
O56          C66   1.281       .  A
O57       Ni1182   1.911       .  S
O57          C66   1.279       .  A
O58         Ni62   1.912   1_554  S
O58          C65   1.279       .  A
O59         Ni62   1.928   1_554  S
O59          C64   1.284       .  A
O60       Ni1182   1.929       .  S
O60          C63   1.283       .  A
Ni61       O1173   1.918       .  S
Ni61       O1176   1.918       .  S
Ni61        Ni62   2.390       .  S
Ni62       O1177   1.911       .  S
Ni62       O1180   1.929       .  S
C63        C1032   1.489       .  S
C64         C932   1.480       .  S
C65        C1041   1.459       .  S
C66         C952   1.465       .  S
C67          C68   1.542       .  S
C67          C73   1.541       .  S
C67          C71   1.531       .  S
C67         C892   1.540       .  S
C68          H75   1.077       .  S
C68          C69   1.367       .  D
C69        C1190   1.561   1_554  S
C69        C1072   1.509       .  S
C70          C74   1.541       .  S
C70        C1189   1.561       .  S
C70        C1192   1.545       .  S
C70          H76   1.110       .  S
C71          H77   1.087       .  S
C71          C72   1.362       .  D
C72        C1190   1.545   1_554  S
C72         C317   1.474       .  S
C73          H78   1.086       .  S
C73        C1194   1.365   1_554  D
C74        C1193   1.365       .  D
C74         C912   1.487       .  S
O79         Ni87   1.928       .  S
O79          C89   1.284       .  A
O80         Ni87   1.927       .  S
O80          C90   1.283       .  A
O81         Ni87   1.915       .  S
O81          C91   1.279       .  A
O82         Ni87   1.906       .  S
O82          C92   1.280       .  A
O83         Ni88   1.911       .  S
O83          C92   1.280       .  A
O84         Ni88   1.906       .  S
O84          C91   1.279       .  A
O85         Ni88   1.915       .  S
O85          C90   1.281       .  A
O86         Ni88   1.915       .  S
O86          C89   1.281       .  A
Ni87        Ni88   2.390       .  S
C89         C901   1.481       .  S
C90         C852   1.481       .  S
C91         C872   1.461       .  S
C92         C881   1.469       .  S
C93          C94   1.542       .  S
C93          C97   1.520       .  S
C93        C1219   1.523       .  S
C93         C812   1.528       .  S
C94         H101   1.078       .  S
C94        C1215   1.375       .  D
C95          C96   1.567       .  S
C95        C1214   1.375   1_554  D
C95         C792   1.520       .  S
C96         C100   1.554       .  S
C96          C98   1.562       .  S
C96         H102   1.106       .  S
C97         H103   1.087       .  S
C97        C1218   1.358       .  D
C98        C1217   1.357   1_554  D
C98         C278   1.487       .  S
C99        C1213   1.523   1_554  S
C99         H104   1.087       .  S
C99         C100   1.360       .  D
C100        C832   1.491       .  S
O105       Ni113   1.925       .  S
O105        C115   1.283       .  A
O106       Ni113   1.926       .  S
O106        C116   1.283       .  A
O107       Ni113   1.905       .  S
O107        C117   1.278       .  A
O108       Ni113   1.905       .  S
O108        C118   1.279       .  A
O109       Ni114   1.905       .  S
O109        C118   1.279       .  A
O110       Ni114   1.905       .  S
O110        C117   1.279       .  A
O111       Ni114   1.927       .  S
O111        C116   1.283       .  A
O112       Ni114   1.925       .  S
O112        C115   1.282       .  A
Ni113      Ni114   2.390       .  S
C115        C821   1.486       .  S
C116        C741   1.487       .  S
C117        C772   1.457       .  S
C118        C801   1.461       .  S
O119      Ni1247   1.931       .  S
O119        C129   1.285       .  A
O120       Ni127   1.931       .  S
O120        C130   1.283       .  A
O121       Ni127   1.912       .  S
O121        C131   1.280       .  A
O122      Ni1247   1.907       .  S
O122        C132   1.279       .  A
O123      Ni1248   1.901       .  S
O123        C132   1.277       .  A
O124       Ni128   1.903       .  S
O124        C131   1.278       .  A
O125       Ni128   1.917       .  S
O125        C130   1.281       .  A
O126      Ni1248   1.922       .  S
O126        C129   1.281       .  A
Ni127      O1239   1.930   1_554  S
Ni127      O1242   1.907   1_554  S
Ni127      Ni128   2.389       .  S
Ni128      O1243   1.901   1_554  S
Ni128      O1246   1.921   1_554  S
C129        C752   1.488       .  S
C130        C841   1.482       .  S
C131        C761   1.465       .  S
C132        C861   1.458       .  S
C133        C134   1.541       .  S
C133        C139   1.532       .  S
C133        C137   1.523   1_545  S
C133        C701   1.539       .  S
C134        H141   1.077       .  S
C134       C1255   1.371       .  D
C135        C136   1.567       .  S
C135       C1254   1.372   1_554  D
C135        C961   1.521       .  S
C136        C140   1.554       .  S
C136        C138   1.557   1_545  S
C136        H142   1.106       .  S
C137        H143   1.087       .  S
C137       C1258   1.362       .  D
C138       C1257   1.361   1_554  D
C138        C320   1.489   1_554  S
C139       H1264   1.086       .  S
C139       C1260   1.365       .  D
C140       C1259   1.365       .  D
C140        C732   1.489       .  S
H144       C1259   1.086       .  S
O145       Ni153   1.927       .  S
O145        C155   1.283       .  A
O146       Ni153   1.929       .  S
O146        C156   1.283   1_565  A
O147       Ni153   1.916       .  S
O147        C157   1.282   1_565  A
O148       Ni153   1.925       .  S
O148        C158   1.281       .  A
O149       Ni154   1.909       .  S
O149        C158   1.279   1_545  A
O150       Ni154   1.911       .  S
O150        C157   1.279       .  A
O151       Ni154   1.926       .  S
O151        C156   1.283       .  A
O152       Ni154   1.931       .  S
O152        C155   1.284   1_545  A
Ni153      Ni154   2.387   1_565  S
C155        C661   1.491       .  S
C156        C721   1.490       .  S
C157        C712   1.478       .  S
C158        C681   1.470       .  S
C159        C160   1.532       .  S
C159        C165   1.539       .  S
C159        C163   1.530       .  S
C159        C621   1.527       .  S
C160        H167   1.087       .  S
C160        C161   1.366       .  D
C161       C1282   1.557   1_554  S
C161        C601   1.502       .  S
C162        C166   1.546       .  S
C162       C1281   1.557       .  S
C162       C1284   1.555       .  S
C162        H168   1.110       .  S
C163        H169   1.087   1_545  S
C163        C164   1.356       .  D
C164       C1282   1.554   1_554  S
C164        C275   1.477   1_545  S
C165        H170   1.080   1_554  S
C165       C1286   1.366   1_554  D
C166       C1285   1.366       .  D
C166        C652   1.485       .  S
O171       Ni179   1.926       .  S
O171        C181   1.283   1_565  A
O172       Ni179   1.928       .  S
O172        C182   1.284   1_565  A
O173       Ni179   1.910       .  S
O173        C183   1.279   1_565  A
O174       Ni179   1.908       .  S
O174        C184   1.278   1_565  A
O175       Ni180   1.906       .  S
O175        C184   1.280       .  A
O176       Ni180   1.912       .  S
O176        C183   1.280       .  A
O177       Ni180   1.923       .  S
O177        C182   1.282       .  A
O178       Ni180   1.920       .  S
O178        C181   1.281       .  A
Ni179      Ni180   2.386   1_565  S
C181        C641   1.484       .  S
C182        C561   1.494       .  S
C183        C581   1.465       .  S
C184        C632   1.476       .  S
O185      Ni1313   1.927       .  S
O185        C195   1.282   1_545  A
O186       Ni193   1.928       .  S
O186        C196   1.283   1_545  A
O187       Ni193   1.925       .  S
O187        C197   1.283   1_545  A
O188      Ni1313   1.924       .  S
O188        C198   1.282   1_545  A
O189      Ni1314   1.909       .  S
O189        C198   1.279       .  A
O190       Ni194   1.912       .  S
O190        C197   1.279       .  A
O191       Ni194   1.934       .  S
O191        C196   1.284       .  A
O192      Ni1314   1.933       .  S
O192        C195   1.284       .  A
Ni193      O1305   1.928   1_554  S
Ni193      O1308   1.925   1_554  S
Ni193      Ni194   2.386   1_545  S
Ni194      O1309   1.910   1_554  S
Ni194      O1312   1.934   1_554  S
C195        C672   1.489       .  S
C196        C572   1.495       .  S
C197        C692   1.476       .  S
C198        C592   1.470       .  S
C199        C200   1.532       .  S
C199        C205   1.548       .  S
C199        C203   1.524   1_455  S
C199        C532   1.532       .  S
C200        H207   1.083       .  S
C200        C201   1.378       .  D
C201       C1322   1.569   1_554  S
C201        C781   1.531       .  S
C202        C206   1.535       .  S
C202       C1321   1.569       .  S
C202       C1324   1.553   1_455  S
C202        H208   1.101       .  S
C203        H209   1.087       .  S
C203        C204   1.354       .  D
C204       C1322   1.553   1_654  S
C204        C306   1.471   1_554  S
C205        H210   1.070       .  S
C205       C1326   1.362   1_554  D
C206       C1325   1.363       .  D
C206        C541   1.484       .  S
O211       Ni219   1.929       .  S
O211        C221   1.283       .  A
O212       Ni219   1.929       .  S
O212        C222   1.284       .  A
O213       Ni219   1.907       .  S
O213        C223   1.278       .  A
O214       Ni219   1.905       .  S
O214        C224   1.278       .  A
O215       Ni220   1.907       .  S
O215        C224   1.279   1_455  A
O216       Ni220   1.907       .  S
O216        C223   1.281   1_455  A
O217       Ni220   1.917       .  S
O217        C222   1.281   1_455  A
O218       Ni220   1.921       .  S
O218        C221   1.281   1_455  A
Ni219      Ni220   2.390   1_655  S
C221        C481   1.476       .  S
C222        C552   1.480       .  S
C223        C521   1.473       .  S
C224        C501   1.460       .  S
C225        C226   1.546       .  S
C225        C231   1.523       .  S
C225        C229   1.525   1_455  S
C225        C452   1.528       .  S
C226        H233   1.080       .  S
C226       C1347   1.379       .  D
C227        C228   1.565   1_455  S
C227       C1346   1.379   1_554  D
C227        C612   1.524       .  S
C228        C232   1.544       .  S
C228        C230   1.555       .  S
C228        H234   1.103       .  S
C229        H235   1.087       .  S
C229       C1350   1.357       .  D
C230       C1349   1.357   1_554  D
C230        C292   1.479   1_554  S
C231       H1356   1.087       .  S
C231       C1352   1.356   1_455  D
C232       C1351   1.357   1_655  D
C232        C472   1.477       .  S
H236       C1351   1.087       .  S
O237       Ni245   1.913       .  S
O237        C247   1.281       .  A
O238       Ni245   1.915       .  S
O238        C248   1.280       .  A
O239       Ni245   1.919       .  S
O239        C249   1.282       .  A
O240       Ni245   1.922       .  S
O240        C250   1.282       .  A
O241       Ni246   1.901       .  S
O241        C250   1.278   1_455  A
O242       Ni246   1.905       .  S
O242        C249   1.278   1_455  A
O243       Ni246   1.925       .  S
O243        C248   1.283   1_455  A
O244       Ni246   1.923       .  S
O244        C247   1.282   1_455  A
Ni245      Ni246   2.387   1_655  S
C247        C401   1.491       .  S
C248        C461   1.474       .  S
C249        C441   1.472   1_655  S
C250        C421   1.476       .  S
O251       Ni259   1.921       .  S
O251        C261   1.282   1_455  A
O252      Ni1379   1.918       .  S
O252        C262   1.281   1_455  A
O253      Ni1379   1.908       .  S
O253        C263   1.280   1_455  A
O254       Ni259   1.915       .  S
O254        C264   1.281   1_455  A
O255       Ni260   1.910       .  S
O255        C264   1.280       .  A
O256      Ni1380   1.907       .  S
O256        C263   1.279       .  A
O257      Ni1380   1.920       .  S
O257        C262   1.282       .  A
O258       Ni260   1.923       .  S
O258        C261   1.282       .  A
Ni259      O1372   1.918   1_554  S
Ni259      O1373   1.908   1_554  S
Ni259      Ni260   2.389   1_455  S
Ni260      O1376   1.907   1_554  S
Ni260      O1377   1.920   1_554  S
C261        C492   1.489       .  S
C262        C412   1.475       .  S
C263        C512   1.467       .  S
C264        C432   1.473       .  S
O265       Ni273   1.921       .  S
O265       C1395   1.279       .  A
O266       Ni273   1.913       .  S
O266       C1396   1.281       .  A
O267       Ni273   1.897       .  S
O267       C1397   1.278       .  A
O268       Ni273   1.916       .  S
O268       C1398   1.285       .  A
O269       Ni274   1.932       .  S
O269        C278   1.280       .  A
O270       Ni274   1.914       .  S
O270        C277   1.280   1_554  A
O271       Ni274   1.903       .  S
O271        C276   1.278   1_554  A
O272       Ni274   1.918       .  S
O272        C275   1.284       .  A
Ni273     Ni1394   2.386       .  S
Ni274     Ni1393   2.386   1_554  S
C275       O1385   1.279   1_554  A
C276       O1386   1.281       .  A
C276        C381   1.471       .  S
C277       O1387   1.278       .  A
C277        C372   1.473       .  S
C278       O1388   1.285   1_554  A
O279       Ni287   1.920       .  S
O279       C1409   1.278       .  A
O280       Ni287   1.914       .  S
O280       C1410   1.279       .  A
O281       Ni287   1.905       .  S
O281       C1411   1.278       .  A
O282       Ni287   1.916       .  S
O282       C1412   1.285       .  A
O283       Ni288   1.921       .  S
O283        C292   1.278   1_554  A
O284       Ni288   1.905       .  S
O284        C291   1.280   1_554  A
O285       Ni288   1.904       .  S
O285        C290   1.280   1_554  A
O286       Ni288   1.914       .  S
O286        C289   1.284   1_554  A
Ni287     Ni1408   2.388       .  S
Ni288     Ni1407   2.388   1_554  S
C289       O1399   1.278       .  A
C290       O1400   1.279       .  A
C290        C361   1.465       .  S
C291       O1401   1.278       .  A
C291        C341   1.476       .  S
C292       O1402   1.285       .  A
O293       Ni301   1.916       .  S
O293        C303   1.276   1_554  A
O294       Ni301   1.900       .  S
O294        C304   1.278   1_554  A
O295       Ni301   1.903       .  S
O295        C305   1.280   1_554  A
O296       Ni301   1.918       .  S
O296        C306   1.284   1_554  A
O297       Ni302   1.911       .  S
O297       C1426   1.276       .  A
O298       Ni302   1.898       .  S
O298       C1425   1.276       .  A
O299       Ni302   1.907       .  S
O299       C1424   1.280       .  A
O300       Ni302   1.919       .  S
O300       C1423   1.286       .  A
Ni301     Ni1422   2.392   1_554  S
Ni302     Ni1421   2.392       .  S
C303       O1420   1.286       .  A
C304       O1419   1.280       .  A
C304        C392   1.465       .  S
C305       O1418   1.276       .  A
C305        C321   1.453       .  S
C306       O1417   1.276       .  A
O307       Ni315   1.927       .  S
O307       C1437   1.282       .  A
O308       Ni315   1.922       .  S
O308       C1438   1.281       .  A
O309       Ni315   1.892       .  S
O309       C1439   1.273       .  A
O310       Ni315   1.906       .  S
O310       C1440   1.282       .  A
O311       Ni316   1.938       .  S
O311        C320   1.282   1_554  A
O312       Ni316   1.920       .  S
O312        C319   1.285   1_554  A
O313       Ni316   1.889       .  S
O313        C318   1.276   1_554  A
O314       Ni316   1.908       .  S
O314        C317   1.279       .  A
Ni315     Ni1436   2.387       .  S
Ni316     Ni1435   2.387   1_554  S
C317       O1427   1.282   1_554  A
C318       O1428   1.281       .  A
C318        C352   1.458       .  S
C319       O1429   1.273       .  A
C319        C332   1.475       .  S
C320       O1430   1.282       .  A
C321        C322   1.406       .  A
C321       C1446   1.399       .  A
C322        C323   1.389       .  A
C322       Br338   1.921   1_556  S
C323        C324   1.400       .  A
C323        H327   1.084       .  S
C324        C328   1.472       .  S
C324       C1445   1.413       .  A
C325        C326   1.394       .  A
C325       C1444   1.413       .  A
C325       Br337   1.920       .  S
C326       C1441   1.399       .  A
C326        H329   1.084       .  S
C328        C334   1.412       .  A
C328       C1450   1.398       .  A
C330        C331   1.396       .  A
C330       C1448   1.398       .  A
C330        H335   1.083       .  S
C331       C1452   1.420       .  A
C331       Br339   1.923       .  S
C332        C333   1.400       .  A
C332       C1451   1.420       .  A
C333        C334   1.387       .  A
C333        H336   1.083   1_556  S
C334       Br340   1.923   1_556  S
C341        C346   1.407   1_556  A
C341       C1462   1.417       .  A
C342        C343   1.395       .  A
C342       C1461   1.417       .  A
C342       Br358   1.921       .  S
C343       C1464   1.397       .  A
C343        H347   1.084       .  S
C344        C348   1.463       .  S
C344        C345   1.404       .  A
C344       C1463   1.397       .  A
C345        C346   1.390   1_556  A
C345       Br357   1.920   1_556  S
C346        H349   1.083       .  S
C348        C350   1.398       .  A
C348       C1474   1.406       .  A
C350        C351   1.389   1_545  A
C350        H355   1.084       .  S
C351        C352   1.409       .  A
C351       Br359   1.922       .  S
C352       C1473   1.401   1_565  A
C353        C354   1.397       .  A
C353       C1472   1.401   1_545  A
C353        H356   1.084       .  S
C354       C1468   1.406       .  A
C354       Br360   1.916       .  S
C361        C366   1.401       .  A
C361       C1482   1.412       .  A
C362        C363   1.398   1_655  A
C362       C1481   1.412       .  A
C362       Br378   1.921   1_655  S
C363       C1484   1.400       .  A
C363        H367   1.084       .  S
C364        C368   1.463       .  S
C364        C365   1.404   1_455  A
C364       C1483   1.400       .  A
C365        C366   1.391       .  A
C365       Br377   1.920   1_556  S
C366        H369   1.084   1_556  S
C368        C370   1.400   1_556  A
C368       C1494   1.402       .  A
C370        C371   1.395       .  A
C370        H375   1.084       .  S
C371        C372   1.414   1_544  A
C371       Br379   1.921       .  S
C372       C1493   1.407   1_565  A
C373        C374   1.392       .  A
C373       C1492   1.407   1_545  A
C373        H376   1.083   1_545  S
C374       C1488   1.402       .  A
C374       Br380   1.919       .  S
C381        C382   1.413   1_556  A
C381       C1506   1.404       .  A
C382        C383   1.393       .  A
C382       Br398   1.922       .  S
C383        C384   1.400   1_554  A
C383        H387   1.084       .  S
C384        C388   1.469       .  S
C384       C1505   1.407       .  A
C385        C386   1.395       .  A
C385       C1504   1.407       .  A
C385       Br397   1.919       .  S
C386       C1501   1.404       .  A
C386        H389   1.083       .  S
C388        C394   1.407   1_556  A
C388       C1510   1.402   1_455  A
C390        C391   1.395       .  A
C390       C1508   1.402   1_655  A
C390        H395   1.084       .  S
C391       C1512   1.411       .  A
C391       Br399   1.921       .  S
C392        C393   1.402   1_556  A
C392       C1511   1.411       .  A
C393        C394   1.390   1_655  A
C393        H396   1.084       .  S
C394       Br400   1.919       .  S
C401        C402   1.418   1_655  A
C401        C406   1.410       .  A
C402        C403   1.400       .  A
C402       Br418   1.921       .  S
C403        C404   1.402   1_455  A
C403        H407   1.084       .  S
C404        C408   1.483       .  S
C404        C405   1.407       .  A
C405        C406   1.398       .  A
C405       Br417   1.920       .  S
C406        H409   1.083       .  S
C408        C410   1.403   1_655  A
C408        C414   1.412       .  A
C410        C411   1.398       .  A
C410        H415   1.084       .  S
C411        C412   1.411   1_455  A
C411       Br419   1.918       .  S
C412        C413   1.402       .  A
C413        C414   1.400       .  A
C413        H416   1.084       .  S
C414       Br420   1.920       .  S
C421        C422   1.413       .  A
C421        C426   1.406   1_655  A
C422        C423   1.399       .  A
C422       Br438   1.921       .  S
C423        C424   1.402       .  A
C423        H427   1.083       .  S
C424        C428   1.474       .  S
C424        C425   1.405   1_655  A
C425        C426   1.394       .  A
C425       Br437   1.920       .  S
C426        H429   1.084       .  S
C428        C430   1.401   1_655  A
C428        C434   1.405       .  A
C430        C431   1.397       .  A
C430        H435   1.084       .  S
C431        C432   1.412   1_455  A
C431       Br439   1.921       .  S
C432        C433   1.405       .  A
C433        C434   1.397       .  A
C433        H436   1.084       .  S
C434       Br440   1.917       .  S
C441        C442   1.414       .  A
C441        C446   1.402   1_455  A
C442        C443   1.394       .  A
C442       Br458   1.919       .  S
C443        C444   1.398       .  A
C443        H447   1.084       .  S
C444        C448   1.473       .  S
C444        C445   1.410   1_455  A
C445        C446   1.397       .  A
C445       Br457   1.920       .  S
C446        H449   1.083       .  S
C448        C450   1.395   1_455  A
C448        C454   1.405       .  A
C450        C451   1.392       .  A
C450        H455   1.084       .  S
C451        C452   1.424   1_655  A
C451       Br459   1.927       .  S
C452        C453   1.410       .  A
C453        C454   1.397       .  A
C453        H456   1.076       .  S
C454       Br460   1.919       .  S
C461        C462   1.410       .  A
C461        C466   1.402   1_655  A
C462        C463   1.402       .  A
C462       Br478   1.919       .  S
C463        C464   1.402       .  A
C463        H467   1.083       .  S
C464        C468   1.481       .  S
C464        C465   1.410   1_655  A
C465        C466   1.400       .  A
C465       Br477   1.920       .  S
C466        H469   1.084       .  S
C468        C470   1.403       .  A
C468        C474   1.409   1_655  A
C470        C471   1.402       .  A
C470        H475   1.083       .  S
C471        C472   1.410       .  A
C471       Br479   1.919       .  S
C472        C473   1.401   1_655  A
C473        C474   1.399       .  A
C473        H476   1.084       .  S
C474       Br480   1.919       .  S
C481        C482   1.407       .  A
C481        C486   1.402       .  A
C482        C483   1.402       .  A
C482       Br498   1.917       .  S
C483        C484   1.406       .  A
C483        H487   1.083       .  S
C484        C488   1.490       .  S
C484        C485   1.413       .  A
C485        C486   1.402       .  A
C485       Br497   1.920       .  S
C486        H489   1.084       .  S
C488        C490   1.404       .  A
C488        C494   1.410   1_655  A
C490        C491   1.401       .  A
C490        H495   1.083       .  S
C491        C492   1.414       .  A
C491       Br499   1.920       .  S
C492        C493   1.408   1_655  A
C493        C494   1.403       .  A
C493        H496   1.083       .  S
C494       Br500   1.919       .  S
C501        C502   1.408   1_655  A
C501        C506   1.402       .  A
C502        C503   1.394       .  A
C502       Br518   1.921       .  S
C503        C504   1.400   1_455  A
C503        H507   1.084       .  S
C504        C508   1.461       .  S
C504        C505   1.403       .  A
C505        C506   1.393       .  A
C505       Br517   1.918       .  S
C506        H509   1.084       .  S
C508        C510   1.398       .  A
C508        C514   1.403   1_655  A
C510        C511   1.393       .  A
C510        H515   1.083       .  S
C511        C512   1.411       .  A
C511       Br519   1.921       .  S
C512        C513   1.405   1_655  A
C513        C514   1.394       .  A
C513        H516   1.082       .  S
C514       Br520   1.919       .  S
C521        C522   1.414       .  A
C521        C526   1.406   1_655  A
C522        C523   1.395       .  A
C522       Br538   1.923       .  S
C523        C524   1.400       .  A
C523        H527   1.084       .  S
C524        C528   1.467       .  S
C524        C525   1.403   1_655  A
C525        C526   1.394       .  A
C525       Br537   1.919       .  S
C526        H529   1.083       .  S
C528        C530   1.396       .  A
C528        C534   1.400   1_655  A
C530        C531   1.399       .  A
C530        H535   1.082       .  S
C531        C532   1.425   1_655  A
C531       Br539   1.926       .  S
C532        C533   1.413       .  A
C533        C534   1.392       .  A
C533        H536   1.057       .  S
C534       Br540   1.923       .  S
C541        C542   1.408       .  A
C541        C546   1.404   1_455  A
C542        C543   1.401       .  A
C542       Br558   1.918       .  S
C543        C544   1.404       .  A
C543        H547   1.083       .  S
C544        C548   1.485   1_455  S
C544        C545   1.409   1_455  A
C545        C546   1.403       .  A
C545       Br557   1.918       .  S
C546        H549   1.083       .  S
C548        C550   1.405       .  A
C548        C554   1.407   1_655  A
C550        C551   1.403       .  A
C550        H555   1.083       .  S
C551        C552   1.410       .  A
C551       Br559   1.920       .  S
C552        C553   1.405   1_655  A
C553        C554   1.401       .  A
C553        H556   1.084       .  S
C554       Br560   1.918       .  S
C561        C562   1.417       .  A
C561        C566   1.409   1_545  A
C562        C563   1.403       .  A
C562       Br578   1.921       .  S
C563        C564   1.403   1_545  A
C563        H567   1.084       .  S
C564        C568   1.491       .  S
C564        C565   1.409       .  A
C565        C566   1.405       .  A
C565       Br577   1.917       .  S
C566        H569   1.083       .  S
C568        C570   1.402       .  A
C568        C574   1.410   1_565  A
C570        C571   1.404       .  A
C570        H575   1.083       .  S
C571        C572   1.414       .  A
C571       Br579   1.908       .  S
C572        C573   1.407   1_565  A
C573        C574   1.405       .  A
C573        H576   1.083       .  S
C574       Br580   1.918       .  S
C581        C582   1.407       .  A
C581        C586   1.402   1_545  A
C582        C583   1.397       .  A
C582       Br598   1.921       .  S
C583        C584   1.403   1_545  A
C583        H587   1.084       .  S
C584        C588   1.474       .  S
C584        C585   1.408       .  A
C585        C586   1.397       .  A
C585       Br597   1.918       .  S
C586        H589   1.084       .  S
C588        C590   1.400       .  A
C588        C594   1.409   1_565  A
C590        C591   1.396       .  A
C590        H595   1.084       .  S
C591        C592   1.408       .  A
C591       Br599   1.916       .  S
C592        C593   1.403   1_565  A
C593        C594   1.400       .  A
C593        H596   1.084       .  S
C594       Br600   1.919       .  S
C601        C606   1.407       .  A
C601       C1722   1.412   1_554  A
C602        C603   1.410       .  A
C602       C1721   1.412       .  A
C602       Br618   1.916       .  S
C603       C1724   1.410       .  A
C603        H607   1.083       .  S
C604        C608   1.506       .  S
C604        C605   1.413       .  A
C604       C1723   1.410   1_554  A
C605        C606   1.403       .  A
C605       Br617   1.919       .  S
C606        H609   1.083       .  S
C608        C610   1.406       .  A
C608       C1734   1.411       .  A
C610        C611   1.411       .  A
C610        H615   1.083       .  S
C611        C612   1.422       .  A
C611       Br619   1.911       .  S
C612       C1733   1.414       .  A
C613        C614   1.404       .  A
C613       C1732   1.414       .  A
C613        H616   1.082       .  S
C614       C1728   1.411       .  A
C614       Br620   1.921       .  S
C621        C622   1.423       .  A
C621        C626   1.413       .  A
C622        C623   1.392       .  A
C622       Br638   1.926       .  S
C623        C624   1.393       .  A
C623        H627   1.084       .  S
C624        C628   1.462       .  S
C624        C625   1.401       .  A
C625        C626   1.394       .  A
C625       Br637   1.920       .  S
C626        H629   1.075       .  S
C628        C630   1.398       .  A
C628        C634   1.400       .  A
C630        C631   1.394   1_545  A
C630        H635   1.084   1_545  S
C631        C632   1.417   1_565  A
C631       Br639   1.924       .  S
C632        C633   1.408       .  A
C633        C634   1.393       .  A
C633        H636   1.083       .  S
C634       Br640   1.918       .  S
C641        C642   1.411       .  A
C641        C646   1.407       .  A
C642        C643   1.400       .  A
C642       Br658   1.920   1_545  S
C643        C644   1.405       .  A
C643        H647   1.084   1_545  S
C644        C648   1.487       .  S
C644        C645   1.410       .  A
C645        C646   1.402       .  A
C645       Br657   1.920       .  S
C646        H649   1.083       .  S
C648        C650   1.402       .  A
C648        C654   1.413       .  A
C650        C651   1.397       .  A
C650        H655   1.083       .  S
C651        C652   1.413       .  A
C651       Br659   1.922       .  S
C652        C653   1.402       .  A
C653        C654   1.403       .  A
C653        H656   1.083   1_545  S
C654       Br660   1.918   1_545  S
C661        C662   1.413       .  A
C661        C666   1.407   1_565  A
C662        C663   1.404       .  A
C662       Br678   1.921       .  S
C663        C664   1.404       .  A
C663        H667   1.079       .  S
C664        C668   1.495       .  S
C664        C665   1.411   1_565  A
C665        C666   1.406       .  A
C665       Br677   1.918       .  S
C666        H669   1.083       .  S
C668        C670   1.406   1_565  A
C668        C674   1.412       .  A
C670        C671   1.406       .  A
C670        H675   1.083       .  S
C671        C672   1.413   1_545  A
C671       Br679   1.919       .  S
C672        C673   1.404       .  A
C673        C674   1.405       .  A
C673        H676   1.084       .  S
C674       Br680   1.916       .  S
C681        C682   1.406       .  A
C681        C686   1.402       .  A
C682        C683   1.395       .  A
C682       Br698   1.916   1_565  S
C683        C684   1.402       .  A
C683        H687   1.084   1_565  S
C684        C688   1.482       .  S
C684        C685   1.413       .  A
C685        C686   1.403       .  A
C685       Br697   1.917       .  S
C686        H689   1.084       .  S
C688        C690   1.403       .  A
C688        C694   1.410       .  A
C690        C691   1.397       .  A
C690        H695   1.080       .  S
C691        C692   1.410       .  A
C691       Br699   1.920       .  S
C692        C693   1.404   1_565  A
C693        C694   1.402   1_545  A
C693        H696   1.083       .  S
C694       Br700   1.919   1_565  S
C701        C702   1.425       .  A
C701        C706   1.417       .  A
C702        C703   1.397       .  A
C702       Br718   1.925   1_545  S
C703        C704   1.397       .  A
C703        H707   1.084   1_545  S
C704        C708   1.472       .  S
C704        C705   1.399       .  A
C705        C706   1.396       .  A
C705       Br717   1.919       .  S
C706        H709   1.073       .  S
C708        C710   1.398       .  A
C708        C714   1.405       .  A
C710        C711   1.397       .  A
C710        H715   1.084       .  S
C711        C712   1.415       .  A
C711       Br719   1.921       .  S
C712        C713   1.406       .  A
C713        C714   1.397       .  A
C713        H716   1.084   1_545  S
C714       Br720   1.919   1_545  S
C721        C722   1.415   1_545  A
C721        C726   1.404       .  A
C722        C723   1.407       .  A
C722       Br738   1.920       .  S
C723        C724   1.406   1_565  A
C723        H727   1.083       .  S
C724        C728   1.495       .  S
C724        C725   1.412       .  A
C725        C726   1.401       .  A
C725       Br737   1.920       .  S
C726        H729   1.082       .  S
C728        C730   1.404   1_545  A
C728        C734   1.414       .  A
C730        C731   1.404       .  A
C730        H735   1.083       .  S
C731        C732   1.409   1_565  A
C731       Br739   1.913       .  S
C732        C733   1.404       .  A
C733        C734   1.406       .  A
C733        H736   1.083       .  S
C734       Br740   1.919       .  S
C741        C742   1.413       .  A
C741        C746   1.406       .  A
C742        C743   1.405       .  A
C742       Br758   1.920       .  S
C743        C744   1.404       .  A
C743        H747   1.083       .  S
C744        C748   1.487       .  S
C744        C745   1.408       .  A
C745        C746   1.403       .  A
C745       Br757   1.917       .  S
C746        H749   1.084       .  S
C748        C750   1.403       .  A
C748        C754   1.408       .  A
C750        C751   1.404       .  A
C750        H755   1.083       .  S
C751        C752   1.415       .  A
C751       Br759   1.921       .  S
C752        C753   1.406       .  A
C753        C754   1.403       .  A
C753        H756   1.083       .  S
C754       Br760   1.917       .  S
C761        C762   1.410       .  A
C761        C766   1.403       .  A
C762        C763   1.392       .  A
C762       Br778   1.917       .  S
C763        C764   1.397       .  A
C763        H767   1.083       .  S
C764        C768   1.462       .  S
C764        C765   1.404       .  A
C765        C766   1.395       .  A
C765       Br777   1.919       .  S
C766        H769   1.084       .  S
C768        C770   1.400       .  A
C768        C774   1.405       .  A
C770        C771   1.393       .  A
C770        H775   1.084       .  S
C771        C772   1.406       .  A
C771       Br779   1.920       .  S
C772        C773   1.401       .  A
C773        C774   1.393       .  A
C773        H776   1.084       .  S
C774       Br780   1.918       .  S
C781        C786   1.418       .  A
C781       C1902   1.425   1_554  A
C782        C783   1.413       .  A
C782       C1901   1.425       .  A
C782       Br798   1.909       .  S
C783       C1904   1.404       .  A
C783        H787   1.083       .  S
C784        C788   1.502       .  S
C784        C785   1.407       .  A
C784       C1903   1.404   1_554  A
C785        C786   1.401       .  A
C785       Br797   1.922       .  S
C786        H789   1.080       .  S
C788        C790   1.406       .  A
C788       C1914   1.408   1_554  A
C790        C791   1.412       .  A
C790        H795   1.081       .  S
C791        C792   1.418       .  A
C791       Br799   1.910       .  S
C792       C1913   1.415   1_554  A
C793        C794   1.401       .  A
C793       C1912   1.415       .  A
C793        H796   1.082       .  S
C794       C1908   1.408       .  A
C794       Br800   1.922       .  S
C801        C802   1.410       .  A
C801        C806   1.403       .  A
C802        C803   1.392       .  A
C802       Br818   1.921       .  S
C803        C804   1.397       .  A
C803        H807   1.084       .  S
C804        C808   1.461       .  S
C804        C805   1.405       .  A
C805        C806   1.394       .  A
C805       Br817   1.919       .  S
C806        H809   1.084       .  S
C808        C810   1.393       .  A
C808        C814   1.399       .  A
C810        C811   1.392       .  A
C810        H815   1.084       .  S
C811        C812   1.426       .  A
C811       Br819   1.928       .  S
C812        C813   1.413       .  A
C813        C814   1.394       .  A
C813        H816   1.075       .  S
C814       Br820   1.919       .  S
C821        C822   1.414       .  A
C821        C826   1.405       .  A
C822        C823   1.404       .  A
C822       Br838   1.919       .  S
C823        C824   1.404       .  A
C823        H827   1.083       .  S
C824        C828   1.489       .  S
C824        C825   1.411       .  A
C825        C826   1.401       .  A
C825       Br837   1.920       .  S
C826        H829   1.084       .  S
C828        C830   1.406       .  A
C828        C834   1.408       .  A
C830        C831   1.405       .  A
C830        H835   1.083       .  S
C831        C832   1.411       .  A
C831       Br839   1.915       .  S
C832        C833   1.408       .  A
C833        C834   1.399       .  A
C833        H836   1.084       .  S
C834       Br840   1.919       .  S
C841        C842   1.408       .  A
C841        C846   1.407       .  A
C842        C843   1.393       .  A
C842       Br858   1.910       .  S
C843        C844   1.397       .  A
C843        H847   1.079       .  S
C844        C848   1.483       .  S
C844        C845   1.410       .  A
C845        C846   1.407       .  A
C845       Br857   1.917       .  S
C846        H849   1.083       .  S
C848        C850   1.402       .  A
C848        C854   1.410       .  A
C850        C851   1.396       .  A
C850        H855   1.084       .  S
C851        C852   1.410       .  A
C851       Br859   1.919       .  S
C852        C853   1.407       .  A
C853        C854   1.404       .  A
C853        H856   1.083       .  S
C854       Br860   1.916       .  S
C861        C862   1.406       .  A
C861        C866   1.401       .  A
C862        C863   1.395       .  A
C862       Br878   1.921       .  S
C863        C864   1.402       .  A
C863        H867   1.084       .  S
C864        C868   1.467       .  S
C864        C865   1.405       .  A
C865        C866   1.393       .  A
C865       Br877   1.915       .  S
C866        H869   1.083       .  S
C868        C870   1.401       .  A
C868        C874   1.405       .  A
C870        C871   1.395       .  A
C870        H875   1.079       .  S
C871        C872   1.406       .  A
C871       Br879   1.919       .  S
C872        C873   1.402       .  A
C873        C874   1.394       .  A
C873        H876   1.084       .  S
C874       Br880   1.919       .  S
C881        C882   1.412       .  A
C881        C886   1.404       .  A
C882        C883   1.397       .  A
C882       Br898   1.921       .  S
C883        C884   1.401       .  A
C883        H887   1.084       .  S
C884        C888   1.469       .  S
C884        C885   1.404       .  A
C885        C886   1.394       .  A
C885       Br897   1.917       .  S
C886        H889   1.084       .  S
C888        C890   1.394       .  A
C888        C894   1.398       .  A
C890        C891   1.396       .  A
C890        H895   1.084       .  S
C891        C892   1.425       .  A
C891       Br899   1.918       .  S
C892        C893   1.416       .  A
C893        C894   1.397       .  A
C893        H896   1.074       .  S
C894       Br900   1.919       .  S
C901        C902   1.411       .  A
C901        C906   1.404       .  A
C902        C903   1.404       .  A
C902       Br918   1.920       .  S
C903        C904   1.406       .  A
C903        H907   1.083       .  S
C904        C908   1.489       .  S
C904        C905   1.411       .  A
C905        C906   1.400       .  A
C905       Br917   1.920       .  S
C906        H909   1.084       .  S
C908        C910   1.401       .  A
C908        C914   1.413       .  A
C910        C911   1.399       .  A
C910        H915   1.084       .  S
C911        C912   1.413       .  A
C911       Br919   1.916       .  S
C912        C913   1.403       .  A
C913        C914   1.406       .  A
C913        H916   1.083       .  S
C914       Br920   1.918       .  S
C921        C922   1.415       .  A
C921        C926   1.408       .  A
C922        C923   1.404       .  A
C922       Br938   1.920       .  S
C923        C924   1.402       .  A
C923        H927   1.083       .  S
C924        C928   1.484       .  S
C924        C925   1.406       .  A
C925        C926   1.402       .  A
C925       Br937   1.918       .  S
C926        H929   1.083       .  S
C928        C930   1.403       .  A
C928        C934   1.408       .  A
C930        C931   1.403       .  A
C930        H935   1.083       .  S
C931        C932   1.413       .  A
C931       Br939   1.921       .  S
C932        C933   1.404       .  A
C933        C934   1.401       .  A
C933        H936   1.084       .  S
C934       Br940   1.916       .  S
C941        C942   1.412       .  A
C941        C946   1.404       .  A
C942        C943   1.399       .  A
C942       Br958   1.920       .  S
C943        C944   1.403       .  A
C943        H947   1.084       .  S
C944        C948   1.476       .  S
C944        C945   1.407       .  A
C945        C946   1.397       .  A
C945       Br957   1.918       .  S
C946        H949   1.082       .  S
C948        C950   1.404       .  A
C948        C954   1.409       .  A
C950        C951   1.399       .  A
C950        H955   1.083       .  S
C951        C952   1.407       .  A
C951       Br959   1.919       .  S
C952        C953   1.400       .  A
C953        C954   1.397       .  A
C953        H956   1.084       .  S
C954       Br960   1.919       .  S
C961        C962   1.417       .  A
C961       C2086   1.416       .  A
C962        C963   1.412       .  A
C962       Br978   1.911       .  S
C963        C964   1.408       .  A
C963        H967   1.080       .  S
C964        C968   1.505       .  S
C964       C2085   1.407   1_554  A
C965        C966   1.404       .  A
C965       C2084   1.407       .  A
C965       Br977   1.919       .  S
C966       C2081   1.416       .  A
C966        H969   1.083       .  S
C968        C974   1.408       .  A
C968       C2090   1.411   1_554  A
C970        C971   1.414       .  A
C970       C2088   1.411       .  A
C970        H975   1.083       .  S
C971       C2092   1.414       .  A
C971       Br979   1.916       .  S
C972        C973   1.413   1_556  A
C972       C2091   1.414       .  A
C973        C974   1.403       .  A
C973        H976   1.083       .  S
C974       Br980   1.919       .  S
C981        C982   1.410       .  A
C981        C986   1.403       .  A
C982        C983   1.394       .  A
C982       Br998   1.920       .  S
C983        C984   1.398       .  A
C983        H987   1.084       .  S
C984        C988   1.461       .  S
C984        C985   1.405       .  A
C985        C986   1.394       .  A
C985       Br997   1.920       .  S
C986        H989   1.084       .  S
C988        C990   1.397       .  A
C988        C994   1.397       .  A
C990        C991   1.398       .  A
C990        H995   1.084       .  S
C991        C992   1.420       .  A
C991       Br999   1.920       .  S
C992        C993   1.414       .  A
C993        C994   1.388       .  A
C993        H996   1.078       .  S
C994      Br1000   1.921       .  S
C1001      C1002   1.412       .  A
C1001      C1006   1.404       .  A
C1002      C1003   1.403       .  A
C1002     Br1018   1.917       .  S
C1003      C1004   1.404       .  A
C1003      H1007   1.083       .  S
C1004      C1008   1.496       .  S
C1004      C1005   1.414       .  A
C1005      C1006   1.407       .  A
C1005     Br1017   1.918       .  S
C1006      H1009   1.084       .  S
C1008      C1010   1.404       .  A
C1008      C1014   1.413       .  A
C1010      C1011   1.402       .  A
C1010      H1015   1.083       .  S
C1011      C1012   1.411       .  A
C1011     Br1019   1.917       .  S
C1012      C1013   1.406       .  A
C1013      C1014   1.408       .  A
C1013      H1016   1.083       .  S
C1014     Br1020   1.919       .  S
C1021      C1022   1.416       .  A
C1021      C1026   1.408       .  A
C1022      C1023   1.402       .  A
C1022     Br1038   1.921       .  S
C1023      C1024   1.403       .  A
C1023      H1027   1.084       .  S
C1024      C1028   1.487       .  S
C1024      C1025   1.408       .  A
C1025      C1026   1.402       .  A
C1025     Br1037   1.917       .  S
C1026      H1029   1.083       .  S
C1028      C1030   1.404       .  A
C1028      C1034   1.407       .  A
C1030      C1031   1.404       .  A
C1030      H1035   1.082       .  S
C1031      C1032   1.415       .  A
C1031     Br1039   1.920       .  S
C1032      C1033   1.407       .  A
C1033      C1034   1.400       .  A
C1033      H1036   1.083       .  S
C1034     Br1040   1.919       .  S
C1041      C1042   1.405       .  A
C1041      C1046   1.400       .  A
C1042      C1043   1.395       .  A
C1042     Br1058   1.917       .  S
C1043      C1044   1.400       .  A
C1043      H1047   1.084       .  S
C1044      C1048   1.466       .  S
C1044      C1045   1.406       .  A
C1045      C1046   1.396       .  A
C1045     Br1057   1.918       .  S
C1046      H1049   1.084       .  S
C1048      C1050   1.395       .  A
C1048      C1054   1.400       .  A
C1050      C1051   1.394       .  A
C1050      H1055   1.084       .  S
C1051      C1052   1.421       .  A
C1051     Br1059   1.924       .  S
C1052      C1053   1.408       .  A
C1053      C1054   1.396       .  A
C1053      H1056   1.083       .  S
C1054     Br1060   1.910       .  S
C1061      C1066   1.410   1_556  A
C1061      C2182   1.425       .  A
C1062      C1063   1.402       .  A
C1062      C2181   1.425       .  A
C1062     Br1078   1.924       .  S
C1063      C2184   1.402       .  A
C1063      H1067   1.084       .  S
C1064      C1068   1.508       .  S
C1064      C1065   1.415       .  A
C1064      C2183   1.402   1_554  A
C1065      C1066   1.412       .  A
C1065     Br1077   1.916       .  S
C1066      H1069   1.082       .  S
C1068      C1070   1.405       .  A
C1068      C2194   1.414   1_554  A
C1070      C1071   1.405       .  A
C1070      H1075   1.083       .  S
C1071      C1072   1.422       .  A
C1071     Br1079   1.924       .  S
C1072      C2193   1.405       .  A
C1073      C1074   1.409       .  A
C1073      C2192   1.405       .  A
C1073      H1076   1.083       .  S
C1074      C2188   1.414       .  A
C1074     Br1080   1.907       .  S
C1081      C1082   1.417       .  A
C1081      C1086   1.410       .  A
C1082      C1083   1.397       .  A
C1082     Br1098   1.920       .  S
C1083      C1084   1.399       .  A
C1083      H1087   1.084       .  S
C1084      C1088   1.464       .  S
C1084      C1085   1.399       .  A
C1085      C1086   1.392       .  A
C1085     Br1097   1.919       .  S
C1086      H1089   1.083       .  S
C1088      C1090   1.394       .  A
C1088      C1094   1.400       .  A
C1090      C1091   1.395       .  A
C1090      H1095   1.084       .  S
C1091      C1092   1.425       .  A
C1091     Br1099   1.926       .  S
C1092      C1093   1.413       .  A
C1093      C1094   1.393       .  A
C1093      H1096   1.074       .  S
C1094     Br1100   1.921       .  S
C1101      C1102   1.415       .  A
C1101      C1106   1.404       .  A
C1102      C1103   1.402       .  A
C1102     Br1118   1.920       .  S
C1103      C1104   1.402       .  A
C1103      H1107   1.083       .  S
C1104      C1108   1.481       .  S
C1104      C1105   1.409       .  A
C1105      C1106   1.398       .  A
C1105     Br1117   1.920       .  S
C1106      H1109   1.084       .  S
C1108      C1110   1.400       .  A
C1108      C1114   1.411       .  A
C1110      C1111   1.396       .  A
C1110      H1115   1.084       .  S
C1111      C1112   1.411       .  A
C1111     Br1119   1.921       .  S
C1112      C1113   1.402       .  A
C1113      C1114   1.404       .  A
C1113      H1116   1.083       .  S
C1114     Br1120   1.918       .  S
C1121      C1122   1.533       .  S
C1121      C1127   1.544       .  S
C1121      C1125   1.522       .  S
C1121      C2212   1.530       .  S
C1122      H1129   1.082       .  S
C1123      C1124   1.563       .  S
C1123      C2181   1.517       .  S
C1124      C1128   1.538       .  S
C1124      C1126   1.556       .  S
C1124      H1130   1.109       .  S
C1125      H1131   1.087       .  S
C1126      C1423   1.478       .  S
C1128      C2232   1.479       .  S
O1133     Ni1141   1.921       .  S
O1133      C1143   1.281       .  A
O1134     Ni1141   1.924       .  S
O1134      C1144   1.283       .  A
O1135     Ni1141   1.919       .  S
O1135      C1145   1.283       .  A
O1136     Ni1141   1.914       .  S
O1136      C1146   1.280       .  A
O1137     Ni1142   1.899       .  S
O1137      C1146   1.279       .  A
O1138     Ni1142   1.899       .  S
O1138      C1145   1.276       .  A
O1139     Ni1142   1.923       .  S
O1139      C1144   1.282       .  A
O1140     Ni1142   1.918       .  S
O1140      C1143   1.282       .  A
Ni1141    Ni1142   2.383       .  S
C1143      C2221   1.482       .  S
C1144      C2141   1.491       .  S
C1145      C2172   1.482       .  S
C1146      C2201   1.480       .  S
C1147      C1148   1.528       .  S
C1147      C1153   1.533       .  S
C1147      C1151   1.537       .  S
C1147      C2112   1.529       .  S
C1148      H1155   1.086       .  S
C1148      C1149   1.369       .  D
C1149      C2092   1.513       .  S
C1150      C1154   1.557       .  S
C1150      H1156   1.109       .  S
C1151      H1157   1.083       .  S
C1151      C1152   1.352       .  D
C1152      C1409   1.474       .  S
C1153      H1158   1.086       .  S
C1154      C2121   1.490       .  S
O1159     Ni1167   1.922       .  S
O1159      C1169   1.282       .  A
O1160     Ni1167   1.921       .  S
O1160      C1170   1.282       .  A
O1161     Ni1167   1.914       .  S
O1161      C1171   1.281       .  A
O1162     Ni1167   1.913       .  S
O1162      C1172   1.281       .  A
O1163     Ni1168   1.903       .  S
O1163      C1172   1.278       .  A
O1164     Ni1168   1.915       .  S
O1164      C1171   1.280       .  A
O1165     Ni1168   1.933       .  S
O1165      C1170   1.284       .  A
O1166     Ni1168   1.936       .  S
O1166      C1169   1.285       .  A
Ni1167    Ni1168   2.388       .  S
C1169      C2132   1.487       .  S
C1170      C2041   1.491       .  S
C1171      C2061   1.475       .  S
C1172      C2101   1.464       .  S
O1173      C1183   1.282       .  A
O1174     Ni1181   1.917       .  S
O1174      C1184   1.281       .  A
O1175     Ni1181   1.910       .  S
O1175      C1185   1.279       .  A
O1176      C1186   1.281       .  A
O1177      C1186   1.279       .  A
O1178     Ni1182   1.912       .  S
O1178      C1185   1.278       .  A
O1179     Ni1182   1.928       .  S
O1179      C1184   1.284       .  A
O1180      C1183   1.284       .  A
Ni1181    Ni1182   2.390       .  S
C1183      C2152   1.489       .  S
C1184      C2052   1.481       .  S
C1185      C2161   1.459       .  S
C1186      C2072   1.465       .  S
C1187      C1188   1.543       .  S
C1187      C1193   1.541       .  S
C1187      C1191   1.531       .  S
C1187      C2012   1.540       .  S
C1188      H1195   1.077       .  S
C1188      C1189   1.367       .  D
C1189      C2192   1.510       .  S
C1190      C1194   1.541       .  S
C1190      H1196   1.110       .  S
C1191      H1197   1.087       .  S
C1191      C1192   1.362       .  D
C1192      C1437   1.473       .  S
C1193      H1198   1.086       .  S
C1194      C2032   1.487       .  S
O1199     Ni1207   1.928       .  S
O1199      C1209   1.284       .  A
O1200     Ni1207   1.926       .  S
O1200      C1210   1.283       .  A
O1201     Ni1207   1.915       .  S
O1201      C1211   1.279       .  A
O1202     Ni1207   1.906       .  S
O1202      C1212   1.280       .  A
O1203     Ni1208   1.910       .  S
O1203      C1212   1.280       .  A
O1204     Ni1208   1.905       .  S
O1204      C1211   1.279       .  A
O1205     Ni1208   1.915       .  S
O1205      C1210   1.281       .  A
O1206     Ni1208   1.915       .  S
O1206      C1209   1.281       .  A
Ni1207    Ni1208   2.391       .  S
C1209      C2021   1.481       .  S
C1210      C1972   1.480       .  S
C1211      C1992   1.460       .  S
C1212      C2001   1.469       .  S
C1213      C1214   1.542       .  S
C1213      C1217   1.520       .  S
C1213      C1932   1.527       .  S
C1214      H1221   1.078       .  S
C1215      C1216   1.567       .  S
C1215      C1912   1.520       .  S
C1216      C1220   1.553       .  S
C1216      C1218   1.562       .  S
C1216      H1222   1.105       .  S
C1217      H1223   1.088       .  S
C1218      C1398   1.488       .  S
C1219      H1224   1.087       .  S
C1219      C1220   1.360       .  D
C1220      C1952   1.491       .  S
O1225     Ni1233   1.925       .  S
O1225      C1235   1.283       .  A
O1226     Ni1233   1.925       .  S
O1226      C1236   1.283       .  A
O1227     Ni1233   1.905       .  S
O1227      C1237   1.278       .  A
O1228     Ni1233   1.905       .  S
O1228      C1238   1.279       .  A
O1229     Ni1234   1.906       .  S
O1229      C1238   1.279       .  A
O1230     Ni1234   1.906       .  S
O1230      C1237   1.279       .  A
O1231     Ni1234   1.926       .  S
O1231      C1236   1.283       .  A
O1232     Ni1234   1.925       .  S
O1232      C1235   1.282       .  A
Ni1233    Ni1234   2.390       .  S
C1235      C1941   1.486       .  S
C1236      C1861   1.485       .  S
C1237      C1892   1.456       .  S
C1238      C1921   1.461       .  S
O1239      C1249   1.284       .  A
O1240     Ni1247   1.932       .  S
O1240      C1250   1.283       .  A
O1241     Ni1247   1.912       .  S
O1241      C1251   1.280       .  A
O1242      C1252   1.279       .  A
O1243      C1252   1.277       .  A
O1244     Ni1248   1.904       .  S
O1244      C1251   1.278       .  A
O1245     Ni1248   1.917       .  S
O1245      C1250   1.281       .  A
O1246      C1249   1.281       .  A
Ni1247    Ni1248   2.389       .  S
C1249      C1872   1.486       .  S
C1250      C1961   1.482       .  S
C1251      C1881   1.465       .  S
C1252      C1981   1.458       .  S
C1253      C1254   1.541       .  S
C1253      C1259   1.532   1_556  S
C1253      C1257   1.523   1_545  S
C1253      C1821   1.539       .  S
C1254      H1261   1.077       .  S
C1255      C1256   1.567       .  S
C1255      C2081   1.521       .  S
C1256      C1260   1.554       .  S
C1256      C1258   1.557   1_545  S
C1256      H1262   1.106       .  S
C1257      H1263   1.087       .  S
C1258      C1440   1.489       .  S
C1260      C1852   1.489       .  S
O1265     Ni1273   1.927       .  S
O1265      C1275   1.283       .  A
O1266     Ni1273   1.930       .  S
O1266      C1276   1.283   1_565  A
O1267     Ni1273   1.916       .  S
O1267      C1277   1.282   1_565  A
O1268     Ni1273   1.924       .  S
O1268      C1278   1.281       .  A
O1269     Ni1274   1.909       .  S
O1269      C1278   1.279   1_545  A
O1270     Ni1274   1.911       .  S
O1270      C1277   1.279       .  A
O1271     Ni1274   1.926       .  S
O1271      C1276   1.283       .  A
O1272     Ni1274   1.931       .  S
O1272      C1275   1.284   1_545  A
Ni1273    Ni1274   2.387   1_565  S
C1275      C1781   1.492       .  S
C1276      C1841   1.490       .  S
C1277      C1832   1.477       .  S
C1278      C1801   1.469       .  S
C1279      C1280   1.532       .  S
C1279      C1285   1.539       .  S
C1279      C1283   1.530       .  S
C1279      C1741   1.527       .  S
C1280      H1287   1.087       .  S
C1280      C1281   1.366       .  D
C1281      C1721   1.502       .  S
C1282      C1286   1.546       .  S
C1282      H1288   1.110       .  S
C1283      H1289   1.087   1_545  S
C1283      C1284   1.356       .  D
C1284      C1395   1.478   1_545  S
C1285      H1290   1.080       .  S
C1286      C1772   1.485       .  S
O1291     Ni1299   1.926       .  S
O1291      C1301   1.283   1_565  A
O1292     Ni1299   1.928       .  S
O1292      C1302   1.284   1_565  A
O1293     Ni1299   1.910       .  S
O1293      C1303   1.279   1_565  A
O1294     Ni1299   1.908       .  S
O1294      C1304   1.278   1_565  A
O1295     Ni1300   1.906       .  S
O1295      C1304   1.280       .  A
O1296     Ni1300   1.912       .  S
O1296      C1303   1.280       .  A
O1297     Ni1300   1.923       .  S
O1297      C1302   1.282       .  A
O1298     Ni1300   1.919       .  S
O1298      C1301   1.281       .  A
Ni1299    Ni1300   2.386   1_565  S
C1301      C1761   1.483       .  S
C1302      C1681   1.494       .  S
C1303      C1701   1.466       .  S
C1304      C1752   1.475       .  S
O1305      C1315   1.283   1_545  A
O1306     Ni1313   1.928       .  S
O1306      C1316   1.283   1_545  A
O1307     Ni1313   1.924       .  S
O1307      C1317   1.283   1_545  A
O1308      C1318   1.282   1_545  A
O1309      C1318   1.279       .  A
O1310     Ni1314   1.911       .  S
O1310      C1317   1.279       .  A
O1311     Ni1314   1.933       .  S
O1311      C1316   1.284       .  A
O1312      C1315   1.284       .  A
Ni1313    Ni1314   2.386   1_545  S
C1315      C1792   1.489       .  S
C1316      C1692   1.495       .  S
C1317      C1812   1.475       .  S
C1318      C1712   1.471       .  S
C1319      C1320   1.532       .  S
C1319      C1325   1.548       .  S
C1319      C1323   1.524   1_455  S
C1319      C1652   1.532       .  S
C1320      H1327   1.083       .  S
C1320      C1321   1.378       .  D
C1321      C1901   1.531       .  S
C1322      C1326   1.535       .  S
C1322      H1328   1.101       .  S
C1323      H1329   1.087       .  S
C1323      C1324   1.353       .  D
C1324      C1426   1.471       .  S
C1325      H1330   1.070       .  S
C1326      C1661   1.483       .  S
O1331     Ni1339   1.929       .  S
O1331      C1341   1.283       .  A
O1332     Ni1339   1.929       .  S
O1332      C1342   1.283       .  A
O1333     Ni1339   1.907       .  S
O1333      C1343   1.278       .  A
O1334     Ni1339   1.905       .  S
O1334      C1344   1.278       .  A
O1335     Ni1340   1.907       .  S
O1335      C1344   1.279   1_455  A
O1336     Ni1340   1.907       .  S
O1336      C1343   1.281   1_455  A
O1337     Ni1340   1.916       .  S
O1337      C1342   1.280   1_455  A
O1338     Ni1340   1.921       .  S
O1338      C1341   1.281   1_455  A
Ni1339    Ni1340   2.390   1_655  S
C1341      C1601   1.476       .  S
C1342      C1672   1.480       .  S
C1343      C1641   1.473       .  S
C1344      C1621   1.460       .  S
C1345      C1346   1.546       .  S
C1345      C1351   1.523   1_556  S
C1345      C1349   1.525   1_455  S
C1345      C1572   1.528       .  S
C1346      H1353   1.080       .  S
C1347      C1348   1.565   1_455  S
C1347      C1732   1.524       .  S
C1348      C1352   1.544       .  S
C1348      C1350   1.554       .  S
C1348      H1354   1.103       .  S
C1349      H1355   1.087       .  S
C1350      C1412   1.479       .  S
C1352      C1592   1.476       .  S
O1357     Ni1365   1.913       .  S
O1357      C1367   1.281       .  A
O1358     Ni1365   1.914       .  S
O1358      C1368   1.280       .  A
O1359     Ni1365   1.919       .  S
O1359      C1369   1.282       .  A
O1360     Ni1365   1.922       .  S
O1360      C1370   1.282       .  A
O1361     Ni1366   1.901       .  S
O1361      C1370   1.278   1_455  A
O1362     Ni1366   1.905       .  S
O1362      C1369   1.278   1_455  A
O1363     Ni1366   1.924       .  S
O1363      C1368   1.282   1_455  A
O1364     Ni1366   1.922       .  S
O1364      C1367   1.282   1_455  A
Ni1365    Ni1366   2.387   1_655  S
C1367      C1521   1.490       .  S
C1368      C1581   1.473       .  S
C1369      C1561   1.472   1_655  S
C1370      C1541   1.477       .  S
O1371     Ni1379   1.921       .  S
O1371      C1381   1.282   1_455  A
O1372      C1382   1.281   1_455  A
O1373      C1383   1.280   1_455  A
O1374     Ni1379   1.914       .  S
O1374      C1384   1.281   1_455  A
O1375     Ni1380   1.910       .  S
O1375      C1384   1.280       .  A
O1376      C1383   1.279       .  A
O1377      C1382   1.281       .  A
O1378     Ni1380   1.923       .  S
O1378      C1381   1.282       .  A
Ni1379    Ni1380   2.389   1_455  S
C1381      C1612   1.489       .  S
C1382      C1532   1.475       .  S
C1383      C1632   1.467       .  S
C1384      C1552   1.473       .  S
O1385     Ni1393   1.920       .  S
O1386     Ni1393   1.912       .  S
O1387     Ni1393   1.896       .  S
O1388     Ni1393   1.915       .  S
O1389     Ni1394   1.932       .  S
O1389      C1398   1.280       .  A
O1390     Ni1394   1.913       .  S
O1390      C1397   1.280       .  A
O1391     Ni1394   1.903       .  S
O1391      C1396   1.278       .  A
O1392     Ni1394   1.918       .  S
O1392      C1395   1.284       .  A
C1396      C1501   1.471       .  S
C1397      C1492   1.473       .  S
O1399     Ni1407   1.920       .  S
O1400     Ni1407   1.913       .  S
O1401     Ni1407   1.905       .  S
O1402     Ni1407   1.916       .  S
O1403     Ni1408   1.920       .  S
O1403      C1412   1.278       .  A
O1404     Ni1408   1.905       .  S
O1404      C1411   1.280       .  A
O1405     Ni1408   1.904       .  S
O1405      C1410   1.280       .  A
O1406     Ni1408   1.914       .  S
O1406      C1409   1.284       .  A
C1410      C1481   1.465       .  S
C1411      C1461   1.476       .  S
O1413     Ni1421   1.916       .  S
O1413      C1423   1.276       .  A
O1414     Ni1421   1.900       .  S
O1414      C1424   1.278       .  A
O1415     Ni1421   1.903       .  S
O1415      C1425   1.280       .  A
O1416     Ni1421   1.918       .  S
O1416      C1426   1.284       .  A
O1417     Ni1422   1.911       .  S
O1418     Ni1422   1.898       .  S
O1419     Ni1422   1.906       .  S
O1420     Ni1422   1.918       .  S
C1424      C1512   1.466       .  S
C1425      C1441   1.453       .  S
O1427     Ni1435   1.927       .  S
O1428     Ni1435   1.921       .  S
O1429     Ni1435   1.891       .  S
O1430     Ni1435   1.905       .  S
O1431     Ni1436   1.938       .  S
O1431      C1440   1.282       .  A
O1432     Ni1436   1.920       .  S
O1432      C1439   1.285       .  A
O1433     Ni1436   1.888       .  S
O1433      C1438   1.275       .  A
O1434     Ni1436   1.908       .  S
O1434      C1437   1.279       .  A
C1438      C1472   1.458       .  S
C1439      C1452   1.475       .  S
C1441      C1442   1.406       .  A
C1442      C1443   1.389       .  A
C1442     Br1458   1.921       .  S
C1443      C1444   1.400       .  A
C1443      H1447   1.084       .  S
C1444      C1448   1.472       .  S
C1445      C1446   1.394       .  A
C1445     Br1457   1.920       .  S
C1446      H1449   1.084       .  S
C1448      C1454   1.412       .  A
C1450      C1451   1.396       .  A
C1450      H1455   1.083       .  S
C1451     Br1459   1.923       .  S
C1452      C1453   1.400       .  A
C1453      C1454   1.387       .  A
C1453      H1456   1.083       .  S
C1454     Br1460   1.923       .  S
C1461      C1466   1.407       .  A
C1462      C1463   1.395       .  A
C1462     Br1478   1.921       .  S
C1463      H1467   1.084       .  S
C1464      C1468   1.463       .  S
C1464      C1465   1.404       .  A
C1465      C1466   1.390       .  A
C1465     Br1477   1.920       .  S
C1466      H1469   1.083       .  S
C1468      C1470   1.398       .  A
C1470      C1471   1.389   1_545  A
C1470      H1475   1.084       .  S
C1471      C1472   1.409       .  A
C1471     Br1479   1.922       .  S
C1473      C1474   1.397       .  A
C1473      H1476   1.084       .  S
C1474     Br1480   1.915       .  S
C1481      C1486   1.401       .  A
C1482      C1483   1.398   1_655  A
C1482     Br1498   1.921   1_655  S
C1483      H1487   1.084       .  S
C1484      C1488   1.464       .  S
C1484      C1485   1.404   1_455  A
C1485      C1486   1.391       .  A
C1485     Br1497   1.920       .  S
C1486      H1489   1.084       .  S
C1488      C1490   1.400       .  A
C1490      C1491   1.395       .  A
C1490      H1495   1.084       .  S
C1491      C1492   1.414   1_545  A
C1491     Br1499   1.922       .  S
C1493      C1494   1.391       .  A
C1493      H1496   1.083   1_545  S
C1494     Br1500   1.919       .  S
C1501      C1502   1.413       .  A
C1502      C1503   1.393       .  A
C1502     Br1518   1.922       .  S
C1503      C1504   1.400       .  A
C1503      H1507   1.084       .  S
C1504      C1508   1.469       .  S
C1505      C1506   1.394       .  A
C1505     Br1517   1.919       .  S
C1506      H1509   1.083       .  S
C1508      C1514   1.407       .  A
C1510      C1511   1.395       .  A
C1510      H1515   1.084       .  S
C1511     Br1519   1.921       .  S
C1512      C1513   1.402       .  A
C1513      C1514   1.390   1_655  A
C1513      H1516   1.084       .  S
C1514     Br1520   1.919       .  S
C1521      C1522   1.418   1_655  A
C1521      C1526   1.410       .  A
C1522      C1523   1.399       .  A
C1522     Br1538   1.921       .  S
C1523      C1524   1.402   1_455  A
C1523      H1527   1.084       .  S
C1524      C1528   1.483       .  S
C1524      C1525   1.407       .  A
C1525      C1526   1.398       .  A
C1525     Br1537   1.920       .  S
C1526      H1529   1.083       .  S
C1528      C1530   1.403   1_655  A
C1528      C1534   1.412       .  A
C1530      C1531   1.398       .  A
C1530      H1535   1.084       .  S
C1531      C1532   1.411   1_455  A
C1531     Br1539   1.918       .  S
C1532      C1533   1.402       .  A
C1533      C1534   1.400       .  A
C1533      H1536   1.084       .  S
C1534     Br1540   1.920       .  S
C1541      C1542   1.413       .  A
C1541      C1546   1.406   1_655  A
C1542      C1543   1.399       .  A
C1542     Br1558   1.921       .  S
C1543      C1544   1.402       .  A
C1543      H1547   1.083       .  S
C1544      C1548   1.473       .  S
C1544      C1545   1.405   1_655  A
C1545      C1546   1.394       .  A
C1545     Br1557   1.920       .  S
C1546      H1549   1.084       .  S
C1548      C1550   1.401   1_655  A
C1548      C1554   1.405       .  A
C1550      C1551   1.397       .  A
C1550      H1555   1.084       .  S
C1551      C1552   1.412   1_455  A
C1551     Br1559   1.921       .  S
C1552      C1553   1.405       .  A
C1553      C1554   1.397       .  A
C1553      H1556   1.084       .  S
C1554     Br1560   1.916       .  S
C1561      C1562   1.414       .  A
C1561      C1566   1.402   1_455  A
C1562      C1563   1.395       .  A
C1562     Br1578   1.919       .  S
C1563      C1564   1.398       .  A
C1563      H1567   1.084       .  S
C1564      C1568   1.473       .  S
C1564      C1565   1.410   1_455  A
C1565      C1566   1.397       .  A
C1565     Br1577   1.920       .  S
C1566      H1569   1.083       .  S
C1568      C1570   1.395   1_455  A
C1568      C1574   1.405       .  A
C1570      C1571   1.392       .  A
C1570      H1575   1.084       .  S
C1571      C1572   1.424   1_655  A
C1571     Br1579   1.927       .  S
C1572      C1573   1.410       .  A
C1573      C1574   1.397       .  A
C1573      H1576   1.076       .  S
C1574     Br1580   1.919       .  S
C1581      C1582   1.410       .  A
C1581      C1586   1.402   1_655  A
C1582      C1583   1.402       .  A
C1582     Br1598   1.919       .  S
C1583      C1584   1.402       .  A
C1583      H1587   1.083       .  S
C1584      C1588   1.480       .  S
C1584      C1585   1.410   1_655  A
C1585      C1586   1.399       .  A
C1585     Br1597   1.920       .  S
C1586      H1589   1.084       .  S
C1588      C1590   1.403       .  A
C1588      C1594   1.409   1_655  A
C1590      C1591   1.402       .  A
C1590      H1595   1.083       .  S
C1591      C1592   1.410       .  A
C1591     Br1599   1.919       .  S
C1592      C1593   1.401   1_655  A
C1593      C1594   1.399       .  A
C1593      H1596   1.084       .  S
C1594     Br1600   1.919       .  S
C1601      C1602   1.407       .  A
C1601      C1606   1.402       .  A
C1602      C1603   1.402       .  A
C1602     Br1618   1.917       .  S
C1603      C1604   1.406       .  A
C1603      H1607   1.083       .  S
C1604      C1608   1.490       .  S
C1604      C1605   1.413       .  A
C1605      C1606   1.402       .  A
C1605     Br1617   1.920       .  S
C1606      H1609   1.084       .  S
C1608      C1610   1.404       .  A
C1608      C1614   1.410   1_655  A
C1610      C1611   1.401       .  A
C1610      H1615   1.083       .  S
C1611      C1612   1.414       .  A
C1611     Br1619   1.920       .  S
C1612      C1613   1.408   1_655  A
C1613      C1614   1.403       .  A
C1613      H1616   1.083       .  S
C1614     Br1620   1.919       .  S
C1621      C1622   1.408   1_655  A
C1621      C1626   1.402       .  A
C1622      C1623   1.394       .  A
C1622     Br1638   1.921       .  S
C1623      C1624   1.400   1_455  A
C1623      H1627   1.084       .  S
C1624      C1628   1.461       .  S
C1624      C1625   1.403       .  A
C1625      C1626   1.393       .  A
C1625     Br1637   1.918       .  S
C1626      H1629   1.084       .  S
C1628      C1630   1.398       .  A
C1628      C1634   1.403   1_655  A
C1630      C1631   1.393       .  A
C1630      H1635   1.083       .  S
C1631      C1632   1.412       .  A
C1631     Br1639   1.921       .  S
C1632      C1633   1.405   1_655  A
C1633      C1634   1.394       .  A
C1633      H1636   1.082       .  S
C1634     Br1640   1.919       .  S
C1641      C1642   1.414       .  A
C1641      C1646   1.406   1_655  A
C1642      C1643   1.395       .  A
C1642     Br1658   1.923       .  S
C1643      C1644   1.400       .  A
C1643      H1647   1.084       .  S
C1644      C1648   1.467       .  S
C1644      C1645   1.403   1_655  A
C1645      C1646   1.394       .  A
C1645     Br1657   1.919       .  S
C1646      H1649   1.083       .  S
C1648      C1650   1.396       .  A
C1648      C1654   1.400   1_655  A
C1650      C1651   1.399       .  A
C1650      H1655   1.082       .  S
C1651      C1652   1.425   1_655  A
C1651     Br1659   1.926       .  S
C1652      C1653   1.413       .  A
C1653      C1654   1.392       .  A
C1653      H1656   1.058       .  S
C1654     Br1660   1.923       .  S
C1661      C1662   1.408       .  A
C1661      C1666   1.404   1_455  A
C1662      C1663   1.401       .  A
C1662     Br1678   1.918       .  S
C1663      C1664   1.404       .  A
C1663      H1667   1.083       .  S
C1664      C1668   1.485   1_455  S
C1664      C1665   1.409   1_455  A
C1665      C1666   1.403       .  A
C1665     Br1677   1.918       .  S
C1666      H1669   1.083       .  S
C1668      C1670   1.405       .  A
C1668      C1674   1.407   1_655  A
C1670      C1671   1.403       .  A
C1670      H1675   1.083       .  S
C1671      C1672   1.410       .  A
C1671     Br1679   1.920       .  S
C1672      C1673   1.405   1_655  A
C1673      C1674   1.401       .  A
C1673      H1676   1.084       .  S
C1674     Br1680   1.918       .  S
C1681      C1682   1.417       .  A
C1681      C1686   1.409   1_545  A
C1682      C1683   1.403       .  A
C1682     Br1698   1.921       .  S
C1683      C1684   1.403   1_545  A
C1683      H1687   1.084       .  S
C1684      C1688   1.491       .  S
C1684      C1685   1.409       .  A
C1685      C1686   1.405       .  A
C1685     Br1697   1.918       .  S
C1686      H1689   1.083       .  S
C1688      C1690   1.402       .  A
C1688      C1694   1.410   1_565  A
C1690      C1691   1.403       .  A
C1690      H1695   1.084       .  S
C1691      C1692   1.414       .  A
C1691     Br1699   1.909       .  S
C1692      C1693   1.407   1_565  A
C1693      C1694   1.405       .  A
C1693      H1696   1.083       .  S
C1694     Br1700   1.918       .  S
C1701      C1702   1.407       .  A
C1701      C1706   1.402   1_545  A
C1702      C1703   1.397       .  A
C1702     Br1718   1.921       .  S
C1703      C1704   1.403   1_545  A
C1703      H1707   1.084       .  S
C1704      C1708   1.475       .  S
C1704      C1705   1.408       .  A
C1705      C1706   1.398       .  A
C1705     Br1717   1.918       .  S
C1706      H1709   1.084       .  S
C1708      C1710   1.400       .  A
C1708      C1714   1.409   1_565  A
C1710      C1711   1.396       .  A
C1710      H1715   1.084       .  S
C1711      C1712   1.408       .  A
C1711     Br1719   1.915       .  S
C1712      C1713   1.403   1_565  A
C1713      C1714   1.401       .  A
C1713      H1716   1.084       .  S
C1714     Br1720   1.919       .  S
C1721      C1726   1.407       .  A
C1722      C1723   1.410       .  A
C1722     Br1738   1.916       .  S
C1723      H1727   1.083       .  S
C1724      C1728   1.506       .  S
C1724      C1725   1.412       .  A
C1725      C1726   1.403       .  A
C1725     Br1737   1.919       .  S
C1726      H1729   1.083       .  S
C1728      C1730   1.406       .  A
C1730      C1731   1.410       .  A
C1730      H1735   1.083       .  S
C1731      C1732   1.421       .  A
C1731     Br1739   1.911       .  S
C1733      C1734   1.404       .  A
C1733      H1736   1.082       .  S
C1734     Br1740   1.921       .  S
C1741      C1742   1.423       .  A
C1741      C1746   1.413       .  A
C1742      C1743   1.392       .  A
C1742     Br1758   1.926       .  S
C1743      C1744   1.393       .  A
C1743      H1747   1.084       .  S
C1744      C1748   1.462       .  S
C1744      C1745   1.401       .  A
C1745      C1746   1.394       .  A
C1745     Br1757   1.920       .  S
C1746      H1749   1.075       .  S
C1748      C1750   1.398       .  A
C1748      C1754   1.401       .  A
C1750      C1751   1.394   1_545  A
C1750      H1755   1.084   1_545  S
C1751      C1752   1.417   1_565  A
C1751     Br1759   1.924       .  S
C1752      C1753   1.408       .  A
C1753      C1754   1.393       .  A
C1753      H1756   1.083       .  S
C1754     Br1760   1.918       .  S
C1761      C1762   1.411       .  A
C1761      C1766   1.407       .  A
C1762      C1763   1.400       .  A
C1762     Br1778   1.920   1_545  S
C1763      C1764   1.405       .  A
C1763      H1767   1.084   1_545  S
C1764      C1768   1.487       .  S
C1764      C1765   1.410       .  A
C1765      C1766   1.402       .  A
C1765     Br1777   1.920       .  S
C1766      H1769   1.083       .  S
C1768      C1770   1.402       .  A
C1768      C1774   1.413       .  A
C1770      C1771   1.397       .  A
C1770      H1775   1.083       .  S
C1771      C1772   1.413       .  A
C1771     Br1779   1.922       .  S
C1772      C1773   1.402       .  A
C1773      C1774   1.403       .  A
C1773      H1776   1.083   1_545  S
C1774     Br1780   1.918   1_545  S
C1781      C1782   1.414       .  A
C1781      C1786   1.407   1_565  A
C1782      C1783   1.404       .  A
C1782     Br1798   1.921       .  S
C1783      C1784   1.404       .  A
C1783      H1787   1.079       .  S
C1784      C1788   1.496       .  S
C1784      C1785   1.411   1_565  A
C1785      C1786   1.406       .  A
C1785     Br1797   1.918       .  S
C1786      H1789   1.083       .  S
C1788      C1790   1.406   1_565  A
C1788      C1794   1.412       .  A
C1790      C1791   1.407       .  A
C1790      H1795   1.083       .  S
C1791      C1792   1.413   1_545  A
C1791     Br1799   1.919       .  S
C1792      C1793   1.404       .  A
C1793      C1794   1.404       .  A
C1793      H1796   1.084       .  S
C1794     Br1800   1.916       .  S
C1801      C1802   1.406       .  A
C1801      C1806   1.402       .  A
C1802      C1803   1.395       .  A
C1802     Br1818   1.916   1_565  S
C1803      C1804   1.402       .  A
C1803      H1807   1.084   1_565  S
C1804      C1808   1.481       .  S
C1804      C1805   1.413       .  A
C1805      C1806   1.402       .  A
C1805     Br1817   1.917       .  S
C1806      H1809   1.084       .  S
C1808      C1810   1.403       .  A
C1808      C1814   1.410       .  A
C1810      C1811   1.397       .  A
C1810      H1815   1.080       .  S
C1811      C1812   1.409       .  A
C1811     Br1819   1.920       .  S
C1812      C1813   1.404   1_565  A
C1813      C1814   1.401   1_545  A
C1813      H1816   1.083       .  S
C1814     Br1820   1.919   1_565  S
C1821      C1822   1.425       .  A
C1821      C1826   1.417       .  A
C1822      C1823   1.397       .  A
C1822     Br1838   1.925   1_545  S
C1823      C1824   1.396       .  A
C1823      H1827   1.084   1_545  S
C1824      C1828   1.471       .  S
C1824      C1825   1.399       .  A
C1825      C1826   1.396       .  A
C1825     Br1837   1.919       .  S
C1826      H1829   1.073       .  S
C1828      C1830   1.398       .  A
C1828      C1834   1.405       .  A
C1830      C1831   1.397       .  A
C1830      H1835   1.084       .  S
C1831      C1832   1.415       .  A
C1831     Br1839   1.921       .  S
C1832      C1833   1.406       .  A
C1833      C1834   1.397       .  A
C1833      H1836   1.084   1_545  S
C1834     Br1840   1.919   1_545  S
C1841      C1842   1.415   1_545  A
C1841      C1846   1.404       .  A
C1842      C1843   1.407       .  A
C1842     Br1858   1.920       .  S
C1843      C1844   1.406   1_565  A
C1843      H1847   1.083       .  S
C1844      C1848   1.495       .  S
C1844      C1845   1.412       .  A
C1845      C1846   1.402       .  A
C1845     Br1857   1.920       .  S
C1846      H1849   1.082       .  S
C1848      C1850   1.404   1_545  A
C1848      C1854   1.413       .  A
C1850      C1851   1.404       .  A
C1850      H1855   1.083       .  S
C1851      C1852   1.410   1_565  A
C1851     Br1859   1.913       .  S
C1852      C1853   1.404       .  A
C1853      C1854   1.406       .  A
C1853      H1856   1.083       .  S
C1854     Br1860   1.919       .  S
C1861      C1862   1.413       .  A
C1861      C1866   1.406       .  A
C1862      C1863   1.404       .  A
C1862     Br1878   1.920       .  S
C1863      C1864   1.404       .  A
C1863      H1867   1.083       .  S
C1864      C1868   1.486       .  S
C1864      C1865   1.408       .  A
C1865      C1866   1.402       .  A
C1865     Br1877   1.917       .  S
C1866      H1869   1.084       .  S
C1868      C1870   1.403       .  A
C1868      C1874   1.408       .  A
C1870      C1871   1.404       .  A
C1870      H1875   1.083       .  S
C1871      C1872   1.415       .  A
C1871     Br1879   1.921       .  S
C1872      C1873   1.406       .  A
C1873      C1874   1.403       .  A
C1873      H1876   1.083       .  S
C1874     Br1880   1.918       .  S
C1881      C1882   1.410       .  A
C1881      C1886   1.403       .  A
C1882      C1883   1.392       .  A
C1882     Br1898   1.918       .  S
C1883      C1884   1.397       .  A
C1883      H1887   1.083       .  S
C1884      C1888   1.462       .  S
C1884      C1885   1.405       .  A
C1885      C1886   1.396       .  A
C1885     Br1897   1.919       .  S
C1886      H1889   1.084       .  S
C1888      C1890   1.400       .  A
C1888      C1894   1.405       .  A
C1890      C1891   1.393       .  A
C1890      H1895   1.084       .  S
C1891      C1892   1.406       .  A
C1891     Br1899   1.920       .  S
C1892      C1893   1.401       .  A
C1893      C1894   1.394       .  A
C1893      H1896   1.084       .  S
C1894     Br1900   1.918       .  S
C1901      C1906   1.418       .  A
C1902      C1903   1.413       .  A
C1902     Br1918   1.909       .  S
C1903      H1907   1.083       .  S
C1904      C1908   1.502       .  S
C1904      C1905   1.407       .  A
C1905      C1906   1.401       .  A
C1905     Br1917   1.922       .  S
C1906      H1909   1.080       .  S
C1908      C1910   1.406       .  A
C1910      C1911   1.412       .  A
C1910      H1915   1.081       .  S
C1911      C1912   1.418       .  A
C1911     Br1919   1.909       .  S
C1913      C1914   1.401       .  A
C1913      H1916   1.082       .  S
C1914     Br1920   1.922       .  S
C1921      C1922   1.410       .  A
C1921      C1926   1.403       .  A
C1922      C1923   1.392       .  A
C1922     Br1938   1.921       .  S
C1923      C1924   1.398       .  A
C1923      H1927   1.084       .  S
C1924      C1928   1.461       .  S
C1924      C1925   1.405       .  A
C1925      C1926   1.394       .  A
C1925     Br1937   1.919       .  S
C1926      H1929   1.084       .  S
C1928      C1930   1.393       .  A
C1928      C1934   1.399       .  A
C1930      C1931   1.392       .  A
C1930      H1935   1.084       .  S
C1931      C1932   1.426       .  A
C1931     Br1939   1.928       .  S
C1932      C1933   1.412       .  A
C1933      C1934   1.394       .  A
C1933      H1936   1.075       .  S
C1934     Br1940   1.919       .  S
C1941      C1942   1.414       .  A
C1941      C1946   1.405       .  A
C1942      C1943   1.403       .  A
C1942     Br1958   1.919       .  S
C1943      C1944   1.404       .  A
C1943      H1947   1.083       .  S
C1944      C1948   1.489       .  S
C1944      C1945   1.411       .  A
C1945      C1946   1.401       .  A
C1945     Br1957   1.920       .  S
C1946      H1949   1.084       .  S
C1948      C1950   1.406       .  A
C1948      C1954   1.408       .  A
C1950      C1951   1.404       .  A
C1950      H1955   1.083       .  S
C1951      C1952   1.411       .  A
C1951     Br1959   1.915       .  S
C1952      C1953   1.408       .  A
C1953      C1954   1.399       .  A
C1953      H1956   1.084       .  S
C1954     Br1960   1.920       .  S
C1961      C1962   1.408       .  A
C1961      C1966   1.407       .  A
C1962      C1963   1.393       .  A
C1962     Br1978   1.910       .  S
C1963      C1964   1.397       .  A
C1963      H1967   1.079       .  S
C1964      C1968   1.483       .  S
C1964      C1965   1.410       .  A
C1965      C1966   1.408       .  A
C1965     Br1977   1.917       .  S
C1966      H1969   1.083       .  S
C1968      C1970   1.402       .  A
C1968      C1974   1.410       .  A
C1970      C1971   1.396       .  A
C1970      H1975   1.084       .  S
C1971      C1972   1.410       .  A
C1971     Br1979   1.919       .  S
C1972      C1973   1.406       .  A
C1973      C1974   1.404       .  A
C1973      H1976   1.083       .  S
C1974     Br1980   1.916       .  S
C1981      C1982   1.406       .  A
C1981      C1986   1.400       .  A
C1982      C1983   1.395       .  A
C1982     Br1998   1.921       .  S
C1983      C1984   1.402       .  A
C1983      H1987   1.084       .  S
C1984      C1988   1.466       .  S
C1984      C1985   1.405       .  A
C1985      C1986   1.392       .  A
C1985     Br1997   1.914       .  S
C1986      H1989   1.083       .  S
C1988      C1990   1.401       .  A
C1988      C1994   1.405       .  A
C1990      C1991   1.395       .  A
C1990      H1995   1.079       .  S
C1991      C1992   1.405       .  A
C1991     Br1999   1.919       .  S
C1992      C1993   1.402       .  A
C1993      C1994   1.394       .  A
C1993      H1996   1.084       .  S
C1994     Br2000   1.919       .  S
C2001      C2002   1.412       .  A
C2001      C2006   1.404       .  A
C2002      C2003   1.397       .  A
C2002     Br2018   1.922       .  S
C2003      C2004   1.401       .  A
C2003      H2007   1.084       .  S
C2004      C2008   1.469       .  S
C2004      C2005   1.404       .  A
C2005      C2006   1.394       .  A
C2005     Br2017   1.917       .  S
C2006      H2009   1.084       .  S
C2008      C2010   1.394       .  A
C2008      C2014   1.399       .  A
C2010      C2011   1.396       .  A
C2010      H2015   1.084       .  S
C2011      C2012   1.425       .  A
C2011     Br2019   1.918       .  S
C2012      C2013   1.416       .  A
C2013      C2014   1.397       .  A
C2013      H2016   1.074       .  S
C2014     Br2020   1.919       .  S
C2021      C2022   1.411       .  A
C2021      C2026   1.404       .  A
C2022      C2023   1.404       .  A
C2022     Br2038   1.920       .  S
C2023      C2024   1.406       .  A
C2023      H2027   1.083       .  S
C2024      C2028   1.488       .  S
C2024      C2025   1.411       .  A
C2025      C2026   1.400       .  A
C2025     Br2037   1.920       .  S
C2026      H2029   1.084       .  S
C2028      C2030   1.401       .  A
C2028      C2034   1.413       .  A
C2030      C2031   1.399       .  A
C2030      H2035   1.084       .  S
C2031      C2032   1.413       .  A
C2031     Br2039   1.916       .  S
C2032      C2033   1.403       .  A
C2033      C2034   1.406       .  A
C2033      H2036   1.083       .  S
C2034     Br2040   1.918       .  S
C2041      C2042   1.415       .  A
C2041      C2046   1.408       .  A
C2042      C2043   1.404       .  A
C2042     Br2058   1.920       .  S
C2043      C2044   1.402       .  A
C2043      H2047   1.083       .  S
C2044      C2048   1.484       .  S
C2044      C2045   1.407       .  A
C2045      C2046   1.402       .  A
C2045     Br2057   1.918       .  S
C2046      H2049   1.083       .  S
C2048      C2050   1.403       .  A
C2048      C2054   1.408       .  A
C2050      C2051   1.403       .  A
C2050      H2055   1.083       .  S
C2051      C2052   1.413       .  A
C2051     Br2059   1.921       .  S
C2052      C2053   1.404       .  A
C2053      C2054   1.402       .  A
C2053      H2056   1.084       .  S
C2054     Br2060   1.916       .  S
C2061      C2062   1.412       .  A
C2061      C2066   1.404       .  A
C2062      C2063   1.399       .  A
C2062     Br2078   1.920       .  S
C2063      C2064   1.403       .  A
C2063      H2067   1.084       .  S
C2064      C2068   1.476       .  S
C2064      C2065   1.407       .  A
C2065      C2066   1.397       .  A
C2065     Br2077   1.918       .  S
C2066      H2069   1.082       .  S
C2068      C2070   1.404       .  A
C2068      C2074   1.409       .  A
C2070      C2071   1.399       .  A
C2070      H2075   1.083       .  S
C2071      C2072   1.407       .  A
C2071     Br2079   1.919       .  S
C2072      C2073   1.400       .  A
C2073      C2074   1.397       .  A
C2073      H2076   1.084       .  S
C2074     Br2080   1.919       .  S
C2081      C2082   1.417       .  A
C2082      C2083   1.411       .  A
C2082     Br2098   1.911       .  S
C2083      C2084   1.408       .  A
C2083      H2087   1.079       .  S
C2084      C2088   1.505       .  S
C2085      C2086   1.404   1_556  A
C2085     Br2097   1.919       .  S
C2086      H2089   1.083   1_554  S
C2088      C2094   1.408       .  A
C2090      C2091   1.414       .  A
C2090      H2095   1.083       .  S
C2091     Br2099   1.916       .  S
C2092      C2093   1.413       .  A
C2093      C2094   1.403       .  A
C2093      H2096   1.083       .  S
C2094     Br2100   1.919       .  S
C2101      C2102   1.410       .  A
C2101      C2106   1.403       .  A
C2102      C2103   1.394       .  A
C2102     Br2118   1.920       .  S
C2103      C2104   1.398       .  A
C2103      H2107   1.084       .  S
C2104      C2108   1.461       .  S
C2104      C2105   1.405       .  A
C2105      C2106   1.394       .  A
C2105     Br2117   1.920       .  S
C2106      H2109   1.084       .  S
C2108      C2110   1.397       .  A
C2108      C2114   1.397       .  A
C2110      C2111   1.398       .  A
C2110      H2115   1.084       .  S
C2111      C2112   1.420       .  A
C2111     Br2119   1.920       .  S
C2112      C2113   1.414       .  A
C2113      C2114   1.388       .  A
C2113      H2116   1.078       .  S
C2114     Br2120   1.921       .  S
C2121      C2122   1.411       .  A
C2121      C2126   1.404       .  A
C2122      C2123   1.403       .  A
C2122     Br2138   1.917       .  S
C2123      C2124   1.404       .  A
C2123      H2127   1.083       .  S
C2124      C2128   1.496       .  S
C2124      C2125   1.414       .  A
C2125      C2126   1.407       .  A
C2125     Br2137   1.919       .  S
C2126      H2129   1.084       .  S
C2128      C2130   1.404       .  A
C2128      C2134   1.413       .  A
C2130      C2131   1.402       .  A
C2130      H2135   1.083       .  S
C2131      C2132   1.411       .  A
C2131     Br2139   1.917       .  S
C2132      C2133   1.406       .  A
C2133      C2134   1.408       .  A
C2133      H2136   1.083       .  S
C2134     Br2140   1.919       .  S
C2141      C2142   1.416       .  A
C2141      C2146   1.408       .  A
C2142      C2143   1.402       .  A
C2142     Br2158   1.921       .  S
C2143      C2144   1.403       .  A
C2143      H2147   1.084       .  S
C2144      C2148   1.487       .  S
C2144      C2145   1.408       .  A
C2145      C2146   1.402       .  A
C2145     Br2157   1.917       .  S
C2146      H2149   1.083       .  S
C2148      C2150   1.404       .  A
C2148      C2154   1.408       .  A
C2150      C2151   1.404       .  A
C2150      H2155   1.082       .  S
C2151      C2152   1.415       .  A
C2151     Br2159   1.920       .  S
C2152      C2153   1.407       .  A
C2153      C2154   1.400       .  A
C2153      H2156   1.083       .  S
C2154     Br2160   1.919       .  S
C2161      C2162   1.405       .  A
C2161      C2166   1.400       .  A
C2162      C2163   1.395       .  A
C2162     Br2178   1.917       .  S
C2163      C2164   1.400       .  A
C2163      H2167   1.084       .  S
C2164      C2168   1.466       .  S
C2164      C2165   1.406       .  A
C2165      C2166   1.396       .  A
C2165     Br2177   1.918       .  S
C2166      H2169   1.084       .  S
C2168      C2170   1.395       .  A
C2168      C2174   1.400       .  A
C2170      C2171   1.394       .  A
C2170      H2175   1.084       .  S
C2171      C2172   1.421       .  A
C2171     Br2179   1.924       .  S
C2172      C2173   1.408       .  A
C2173      C2174   1.396       .  A
C2173      H2176   1.083       .  S
C2174     Br2180   1.910       .  S
C2181      C2186   1.411       .  A
C2182      C2183   1.402       .  A
C2182     Br2198   1.925       .  S
C2183      H2187   1.084       .  S
C2184      C2188   1.508       .  S
C2184      C2185   1.415       .  A
C2185      C2186   1.412       .  A
C2185     Br2197   1.916       .  S
C2186      H2189   1.082       .  S
C2188      C2190   1.405       .  A
C2190      C2191   1.405       .  A
C2190      H2195   1.083       .  S
C2191      C2192   1.422       .  A
C2191     Br2199   1.924       .  S
C2193      C2194   1.409   1_554  A
C2193      H2196   1.083   1_554  S
C2194     Br2200   1.906       .  S
C2201      C2202   1.417       .  A
C2201      C2206   1.410       .  A
C2202      C2203   1.397       .  A
C2202     Br2218   1.920       .  S
C2203      C2204   1.398       .  A
C2203      H2207   1.084       .  S
C2204      C2208   1.463       .  S
C2204      C2205   1.399       .  A
C2205      C2206   1.392       .  A
C2205     Br2217   1.919       .  S
C2206      H2209   1.083       .  S
C2208      C2210   1.394       .  A
C2208      C2214   1.400       .  A
C2210      C2211   1.395       .  A
C2210      H2215   1.084       .  S
C2211      C2212   1.425       .  A
C2211     Br2219   1.926       .  S
C2212      C2213   1.413       .  A
C2213      C2214   1.393       .  A
C2213      H2216   1.074       .  S
C2214     Br2220   1.921       .  S
C2221      C2222   1.415       .  A
C2221      C2226   1.404       .  A
C2222      C2223   1.402       .  A
C2222     Br2238   1.920       .  S
C2223      C2224   1.402       .  A
C2223      H2227   1.083       .  S
C2224      C2228   1.481       .  S
C2224      C2225   1.409       .  A
C2225      C2226   1.398       .  A
C2225     Br2237   1.920       .  S
C2226      H2229   1.084       .  S
C2228      C2230   1.400       .  A
C2228      C2234   1.411       .  A
C2230      C2231   1.396       .  A
C2230      H2235   1.084       .  S
C2231      C2232   1.410       .  A
C2231     Br2239   1.921       .  S
C2232      C2233   1.402       .  A
C2233      C2234   1.404       .  A
C2233      H2236   1.083       .  S
C2234     Br2240   1.918       .  S
