geometry optimzed in LAMMPS
_audit_creation_date              2020-12-01 
_audit_creation_method            'lammps2cif' 
_symmetry_space_group_name_H-M    'P1' 
_symmetry_Int_Tables_number       1 
_symmetry_cell_setting            triclinic 
loop_ 
_symmetry_equiv_pos_as_xyz 
  x,y,z 
_cell_length_a                    53.34094917 
_cell_length_b                    53.14700057821359 
_cell_length_c                    39.81373977621447 
_cell_angle_alpha                 89.6141427996075 
_cell_angle_beta                  89.93507276841069 
_cell_angle_gamma                 89.9973182983808 
loop_ 
_atom_site_label 
_atom_site_type_symbol 
_atom_site_fract_x 
_atom_site_fract_y 
_atom_site_fract_z 
_atom_site_charge 
Zr1        Zr  0.99899442  0.03551128  0.19764108     2.17500
O2          O  0.99521205  0.07792755  0.17422000    -0.51300
O3          O  0.99902534  0.02469563  0.13775070    -0.74600
O4          O  0.03953784  0.05716858  0.19042455    -0.81300
O5          O  0.92843014  0.03351859  0.21921019    -0.83100
O6          O  0.06969112  0.03385259  0.21574556    -0.78700
O7          O  0.95928363  0.05862935  0.19793832    -0.90300
O8          O  0.00277410  0.98238071  0.13330970    -0.76300
O9          O  0.02577616  0.99990240  0.19251984    -0.85800
O10         O  0.97234456  0.99958767  0.19223711    -0.85500
O11         O  0.02309491  0.03491040  0.24884369    -0.72200
O12         O  0.97413856  0.03310305  0.24795632    -0.84400
Zr13       Zr  0.00020439  0.95979105  0.28931994     2.26400
Zr14       Zr  0.04949906  0.99869258  0.24351100     2.06300
Zr15       Zr  0.94841914  0.99649464  0.24300150     2.10000
Zr16       Zr  0.99915404  0.96405660  0.18834269     1.78800
O17         O  0.91643126  0.01088699  0.28211649    -0.93200
O18         O  0.03534055  0.94279076  0.16423183    -0.41000
O19         O  0.97534756  0.96076907  0.23888526    -0.77600
O20         O  0.02410216  0.96159485  0.23794538    -0.96300
O21         O  0.02590956  0.99621719  0.29461903    -0.89600
O22         O  0.97229160  0.99475544  0.29388272    -0.92500
C23         C  0.00137475  0.00444563  0.12048041     1.01300
C24         C  0.93627455  0.05402221  0.20558053     1.14200
C25         C  0.06253891  0.05305203  0.19865681     1.05000
O26         O  0.08285599  0.98442938  0.20658007    -0.94600
O27         O  0.07085012  0.96301425  0.26785327    -0.90400
O28         O  0.04180884  0.94014884  0.29665500    -0.83500
C29         C  0.06422865  0.94396213  0.28563133     1.11600
O30         O  0.99776418  0.07697279  0.29840647    -0.96600
Zr31       Zr  0.99805307  0.03110256  0.29848655     1.88900
O32         O  0.99863031  0.97016196  0.34925741    -0.73200
O33         O  0.07850944  0.01584575  0.28459900    -0.52500
O34         O  0.03372692  0.04870949  0.32845870    -0.97200
O35         O  0.95997187  0.04812276  0.32361221    -0.54400
O36         O  0.99716345  0.01265662  0.35367052    -0.73700
C37         C  0.99742447  0.99052814  0.36647528     0.98600
O38         O  0.99893155  0.91602840  0.30839577    -0.62600
O39         O  0.91813490  0.98119538  0.20217210    -0.57400
O40         O  0.96067020  0.93659665  0.29378476    -0.94100
O41         O  0.93006866  0.95847676  0.26669042    -0.92500
O42         O  0.96151322  0.94971616  0.15960680    -0.92800
O43         O  0.99441216  0.91851746  0.18672344    -0.91600
C44         C  0.93787739  0.93949347  0.28387164     1.17400
H45         H  0.96149511  0.00112523  0.17291776     0.33400
H46         H  0.03413308  0.94665976  0.23509396     0.44200
H47         H  0.96124613  0.99276457  0.31294830     0.37800
H48         H  0.03277489  0.05010862  0.25151322     0.34200
H49         H  0.03067355  0.93962945  0.14057187     0.26000
H50         H  0.09521370  0.01433087  0.27392137     0.32000
H51         H  0.04320776  0.03395602  0.33690260     0.37900
H52         H  0.96680714  0.94686117  0.13609556     0.32300
H53         H  0.92108515  0.96283284  0.20092120     0.31200
H54         H  0.90196530  0.99955685  0.27850631     0.32900
H55         H  0.95205899  0.03388832  0.33578570     0.31900
H56         H  0.99834658  0.91286052  0.20987035     0.35900
H57         H  0.00864516  0.90623745  0.29176829     0.28600
H58         H  0.00547049  0.07803956  0.15347263     0.32800
H59         H  0.99653506  0.08186692  0.32231214     0.35700
H60         H  0.90168229  0.98281552  0.21348700     0.28300
H61         H  0.00891158  0.91535914  0.32934376     0.41200
H62         H  0.07757415  0.98959491  0.18372449     0.31200
H63         H  0.04845743  0.95592675  0.16284439     0.38800
H64         H  0.94865968  0.05149149  0.30440446     0.30700
H65         H  0.07506001  0.03414897  0.28464774     0.30700
H66         H  0.00411948  0.08916522  0.18996972     0.31000
Zr67       Zr  0.99707941  0.03198494  0.69400722     2.17500
O68         O  0.99413843  0.07278743  0.66563927    -0.51300
O69         O  0.99466140  0.01772576  0.63550495    -0.74600
O70         O  0.03746178  0.05262428  0.68415304    -0.81300
O71         O  0.92901386  0.03730260  0.72563688    -0.83100
O72         O  0.06841952  0.02896314  0.70737985    -0.78700
O73         O  0.95823931  0.05651860  0.69297468    -0.90300
O74         O  0.99071500  0.97525249  0.63477339    -0.76300
O75         O  0.02237765  0.99518308  0.69005573    -0.85800
O76         O  0.96879696  0.99722658  0.69447297    -0.85500
O77         O  0.02358440  0.03282217  0.74314506    -0.72200
O78         O  0.97499567  0.03409956  0.74653222    -0.84400
Zr79       Zr  0.99964289  0.96178052  0.79250264     2.26400
Zr80       Zr  0.04847480  0.99540718  0.73897797     2.06300
Zr81       Zr  0.94745439  0.99879048  0.74732465     2.10000
Zr82       Zr  0.99418821  0.96043476  0.69188232     1.78800
O83         O  0.91547755  0.01589899  0.78448578    -0.93200
O84         O  0.02884554  0.94060058  0.66215854    -0.41000
O85         O  0.97249019  0.96155736  0.74434297    -0.77600
O86         O  0.02125333  0.95951688  0.73940829    -0.96300
O87         O  0.02726619  0.99692430  0.79199713    -0.89600
O88         O  0.97365762  0.99819741  0.79619130    -0.92500
C89         C  0.99195439  0.99669123  0.62005491     1.01300
C90         C  0.93620774  0.05520209  0.70610089     1.14200
C91         C  0.06061561  0.04825428  0.69094000     1.05000
O92         O  0.07797491  0.97570698  0.70051158    -0.94600
O93         O  0.06893444  0.96055933  0.76658700    -0.90400
O94         O  0.04003949  0.93964819  0.79806593    -0.83500
C95         C  0.06230326  0.94242741  0.78602852     1.11600
O96         O  0.00523968  0.07882217  0.79040297    -0.96600
Zr97       Zr  0.00129625  0.03324867  0.79502441     1.88900
O98         O  0.00243482  0.97574814  0.85101292    -0.73200
O99         O  0.08168811  0.01153741  0.77484293    -0.52500
O100        O  0.04030641  0.04845522  0.81937880    -0.97200
O101        O  0.96573174  0.05471177  0.82059931    -0.54400
O102        O  0.00168345  0.01836756  0.85208203    -0.73700
C103        C  0.00244338  0.99687302  0.86663729     0.98600
O104        O  0.99602634  0.91965933  0.81691868    -0.62600
O105        O  0.91616403  0.98194194  0.70895323    -0.57400
O106        O  0.95917293  0.94141086  0.80180266    -0.94100
O107        O  0.92811877  0.96438896  0.77762930    -0.92500
O108        O  0.95534628  0.94080666  0.67359647    -0.92800
O109        O  0.99536589  0.91479067  0.69776625    -0.91600
C110        C  0.93596079  0.94554820  0.79490329     1.17400
H111        H  0.95712053  0.99821236  0.67596424     0.33400
H112        H  0.03048996  0.94402768  0.73721669     0.44200
H113        H  0.96363061  0.99776639  0.81637608     0.37800
H114        H  0.03386008  0.04772393  0.74415092     0.34200
H115        H  0.02120726  0.93346536  0.64166987     0.26000
H116        H  0.09742159  0.00680355  0.76325207     0.32000
H117        H  0.03585823  0.05395278  0.84233974     0.37900
H118        H  0.96035574  0.92952480  0.65508178     0.32300
H119        H  0.90097130  0.97956664  0.72292747     0.31200
H120        H  0.92132310  0.01204793  0.80753465     0.32900
H121        H  0.95785247  0.04206030  0.83560950     0.31900
H122        H  0.99076614  0.91156278  0.72151297     0.35900
H123        H  0.00414914  0.90811124  0.80079489     0.28600
H124        H  0.00498068  0.07175196  0.64548172     0.32800
H125        H  0.00506471  0.08512352  0.81375263     0.35700
H126        H  0.91188137  0.99607354  0.69368502     0.28300
H127        H  0.00699110  0.91957903  0.83696264     0.41200
H128        H  0.07399939  0.98297325  0.67818787     0.31200
H129        H  0.03926742  0.95473760  0.65381903     0.38800
H130        H  0.95354214  0.05698121  0.80208667     0.30700
H131        H  0.08075577  0.03005818  0.77240860     0.30700
H132        H  0.00245523  0.08506582  0.68056219     0.31000
Zr133      Zr  0.28397908  0.24846088  0.07632426     2.17500
O134        O  0.32344728  0.25099922  0.04540054    -0.51300
O135        O  0.27079855  0.24728589  0.01733037    -0.74600
O136        O  0.30569214  0.20787926  0.07294768    -0.81300
O137        O  0.28452510  0.31944164  0.09504357    -0.83100
O138        O  0.28324122  0.17823397  0.10101920    -0.78700
O139        O  0.30851185  0.28743889  0.07510412    -0.90300
O140        O  0.22898563  0.23953816  0.01551024    -0.76300
O141        O  0.24902040  0.22059578  0.07623535    -0.85800
O142        O  0.24764199  0.27431812  0.07030790    -0.85500
O143        O  0.28570490  0.22657428  0.12966021    -0.72200
O144        O  0.28354270  0.27589650  0.12383064    -0.84400
Zr145      Zr  0.21305386  0.25112653  0.17241759     2.26400
Zr146      Zr  0.24967033  0.19955725  0.12955034     2.06300
Zr147      Zr  0.24676283  0.30098731  0.11854820     2.10000
Zr148      Zr  0.21280537  0.24642342  0.07126883     1.78800
O149        O  0.25877645  0.33630471  0.15372103    -0.93200
O150        O  0.19249233  0.20839387  0.05101501    -0.41000
O151        O  0.21170611  0.27314393  0.11933294    -0.77600
O152        O  0.21245961  0.22433204  0.12357378    -0.96300
O153        O  0.24983841  0.22607908  0.17787852    -0.89600
O154        O  0.24761815  0.27971789  0.17191698    -0.92500
C155        C  0.25042155  0.24225481  0.00151548     1.01300
C156        C  0.30468955  0.31078912  0.08183123     1.14200
C157        C  0.30188543  0.18511819  0.08294137     1.05000
O158        O  0.23027217  0.16736395  0.09493123    -0.94600
O159        O  0.21670141  0.18000430  0.16212674    -0.90400
O160        O  0.19075180  0.21088141  0.18047188    -0.83500
C161        C  0.19604242  0.18757747  0.17510718     1.11600
O162        O  0.32978180  0.25594725  0.16876335    -0.96600
Zr163      Zr  0.28443952  0.25448576  0.17639608     1.88900
O164        O  0.22760476  0.25090326  0.23114631    -0.73200
O165        O  0.26811653  0.16874947  0.16781227    -0.52500
O166        O  0.30564591  0.22092219  0.20715718    -0.97200
O167        O  0.30205250  0.29376523  0.19718767    -0.54400
O168        O  0.26979676  0.25616711  0.23327239    -0.73700
C169        C  0.24839187  0.25343556  0.24723346     0.98600
O170        O  0.17403883  0.25745783  0.20322147    -0.62600
O171        O  0.23176299  0.32887580  0.07408558    -0.57400
O172        O  0.18865531  0.29022992  0.17106058    -0.94100
O173        O  0.20894209  0.32006943  0.14018392    -0.92500
O174        O  0.19550660  0.28045253  0.03722924    -0.92800
O175        O  0.16739076  0.24895305  0.07677585    -0.91600
C176        C  0.19041819  0.31243542  0.15811630     1.17400
H177        H  0.24828504  0.28398535  0.04969295     0.33400
H178        H  0.19767838  0.21396462  0.12195676     0.44200
H179        H  0.24626057  0.29157060  0.19010998     0.37800
H180        H  0.30100452  0.21710142  0.13243472     0.34200
H181        H  0.18398308  0.21359205  0.02999584     0.26000
H182        H  0.26569227  0.15233729  0.15662307     0.32000
H183        H  0.29265295  0.20786690  0.21065521     0.37900
H184        H  0.18976580  0.29309897  0.05368718     0.32300
H185        H  0.23425079  0.34603098  0.08301505     0.31200
H186        H  0.25692052  0.35131169  0.13905818     0.32900
H187        H  0.28807216  0.30239957  0.20871498     0.31900
H188        H  0.16447518  0.25282095  0.10076589     0.35900
H189        H  0.16103453  0.24799519  0.19084606     0.28600
H190        H  0.32229975  0.23827665  0.02740571     0.32800
H191        H  0.33685417  0.25815705  0.19153940     0.35700
H192        H  0.24415375  0.32753112  0.05567725     0.28300
H193        H  0.17623381  0.24819387  0.22465126     0.41200
H194        H  0.23785519  0.16955796  0.07239082     0.31200
H195        H  0.20641189  0.19747844  0.04350997     0.38800
H196        H  0.30517330  0.30405515  0.17677676     0.30700
H197        H  0.28641109  0.17178969  0.16671397     0.30700
H198        H  0.33646214  0.24452831  0.06094026     0.31000
Zr199      Zr  0.21087146  0.24545608  0.67293727     2.17500
O200        O  0.16788984  0.24711856  0.69373407    -0.51300
O201        O  0.22303728  0.24234818  0.73221468    -0.74600
O202        O  0.19039537  0.20414380  0.67744366    -0.81300
O203        O  0.21112143  0.31670758  0.65698658    -0.83100
O204        O  0.21177065  0.17593964  0.64574133    -0.78700
O205        O  0.18800740  0.28520279  0.68013106    -0.90300
O206        O  0.26503626  0.23585563  0.73431357    -0.76300
O207        O  0.24586116  0.21750068  0.67253356    -0.85800
O208        O  0.24710457  0.27124053  0.67999561    -0.85500
O209        O  0.20991746  0.22494963  0.61909451    -0.72200
O210        O  0.21169642  0.27381610  0.62575541    -0.84400
Zr211      Zr  0.28248164  0.25091440  0.57768323     2.26400
Zr212      Zr  0.24594108  0.19780869  0.61852471     2.06300
Zr213      Zr  0.24848872  0.29888827  0.63232921     2.10000
Zr214      Zr  0.28191837  0.24333699  0.67875169     1.78800
O215        O  0.23537572  0.33647130  0.60169705    -0.93200
O216        O  0.30222358  0.20468785  0.69748799    -0.41000
O217        O  0.28380747  0.27140892  0.63142646    -0.77600
O218        O  0.28278644  0.22290835  0.62565588    -0.96300
O219        O  0.24624592  0.22544371  0.57080386    -0.89600
O220        O  0.24778564  0.27906490  0.57839327    -0.92500
C221        C  0.24347557  0.23772118  0.74826520     1.01300
C222        C  0.19150240  0.30848223  0.67218694     1.14200
C223        C  0.19357013  0.18205014  0.66510272     1.05000
O224        O  0.26381553  0.16259480  0.64975982    -0.94600
O225        O  0.28050748  0.17916644  0.58762529    -0.90400
O226        O  0.30393144  0.21117665  0.56638082    -0.83500
C227        C  0.29982602  0.18767414  0.57195869     1.11600
O228        O  0.16594622  0.25666169  0.57586585    -0.96600
Zr229      Zr  0.21146672  0.25346267  0.57255155     1.88900
O230        O  0.26941841  0.25300558  0.51844132    -0.73200
O231        O  0.22649847  0.17107290  0.57648827    -0.52500
O232        O  0.18995580  0.21912039  0.54432866    -0.97200
O233        O  0.19611764  0.29324287  0.54960411    -0.54400
O234        O  0.22712442  0.25341226  0.51596818    -0.73700
C235        C  0.24865641  0.25345573  0.50193813     0.98600
O236        O  0.32369085  0.25672581  0.55207826    -0.62600
O237        O  0.26600913  0.32297983  0.67856519    -0.57400
O238        O  0.30524830  0.29066351  0.57706751    -0.94100
O239        O  0.28408601  0.31996617  0.60682025    -0.92500
O240        O  0.29913841  0.27722513  0.71250769    -0.92800
O241        O  0.32750621  0.24410556  0.67555046    -0.91600
C242        C  0.30257744  0.31308990  0.58843795     1.17400
H243        H  0.24632809  0.28056254  0.70073057     0.33400
H244        H  0.29773237  0.21272510  0.62662657     0.44200
H245        H  0.24913616  0.29138160  0.56053397     0.37800
H246        H  0.19462630  0.21550369  0.61628695     0.34200
H247        H  0.31041710  0.20912371  0.71894926     0.26000
H248        H  0.22754319  0.15385726  0.58604529     0.32000
H249        H  0.20311016  0.21054995  0.53107865     0.37900
H250        H  0.30360495  0.26919558  0.73420553     0.32300
H251        H  0.28430748  0.32334974  0.67438153     0.31200
H252        H  0.23787069  0.35046111  0.61765119     0.32900
H253        H  0.20864212  0.29852512  0.53259649     0.31900
H254        H  0.33125636  0.25362214  0.65467764     0.35900
H255        H  0.33565470  0.24739771  0.56651884     0.28600
H256        H  0.16723514  0.23576682  0.71353054     0.32800
H257        H  0.16012824  0.25862527  0.55237526     0.35700
H258        H  0.26032576  0.34045871  0.67449537     0.28300
H259        H  0.32321993  0.24733723  0.53068216     0.41200
H260        H  0.25876249  0.16544690  0.67336060     0.31200
H261        H  0.28825641  0.19342699  0.70404855     0.38800
H262        H  0.19812162  0.30542276  0.56811571     0.30700
H263        H  0.20843144  0.17528593  0.57735478     0.30700
H264        H  0.15742042  0.23893252  0.67642414     0.31000
Zr265      Zr  0.28997001  0.75107713  0.41494146     2.17500
O266        O  0.33281179  0.74890495  0.43629173    -0.51300
O267        O  0.27791321  0.74941865  0.47437130    -0.74600
O268        O  0.30910632  0.79260726  0.42386781    -0.81300
O269        O  0.29392014  0.68150014  0.38958087    -0.83100
O270        O  0.28638943  0.82243337  0.39651755    -0.78700
O271        O  0.31371339  0.71196063  0.41948979    -0.90300
O272        O  0.23554947  0.74741146  0.47732651    -0.76300
O273        O  0.25315847  0.77625459  0.41899169    -0.85800
O274        O  0.25559918  0.72233048  0.41787609    -0.85500
O275        O  0.28978551  0.77614184  0.36420756    -0.72200
O276        O  0.29112272  0.72691700  0.36402369    -0.84400
Zr277      Zr  0.21829427  0.74957870  0.32037660     2.26400
Zr278      Zr  0.25231547  0.80092857  0.36834681     2.06300
Zr279      Zr  0.25598090  0.69915980  0.36654325     2.10000
Zr280      Zr  0.21890165  0.74748459  0.42108089     1.78800
O281        O  0.27098332  0.66927949  0.32502546    -0.93200
O282        O  0.19715223  0.78153957  0.44959525    -0.41000
O283        O  0.21871318  0.72389434  0.37025871    -0.77600
O284        O  0.21696052  0.77325488  0.37187519    -0.96300
O285        O  0.25311493  0.77756120  0.31714005    -0.89600
O286        O  0.25478012  0.72386586  0.31615243    -0.92500
C287        C  0.25725393  0.74812562  0.49099143     1.01300
C288        C  0.31200842  0.68956804  0.40772059     1.14200
C289        C  0.30503335  0.81555080  0.41472510     1.05000
O290        O  0.23265639  0.83006720  0.40728943    -0.94600
O291        O  0.21732844  0.82027617  0.33915296    -0.90400
O292        O  0.19454047  0.78890207  0.31546054    -0.83500
C293        C  0.19803728  0.81208263  0.32338978     1.11600
O294        O  0.33513621  0.75295593  0.31973029    -0.96600
Zr295      Zr  0.28961491  0.75185744  0.31398599     1.88900
O296        O  0.23100964  0.74891095  0.26118824    -0.73200
O297        O  0.26707858  0.83385853  0.33034712    -0.52500
O298        O  0.30705461  0.78978570  0.28846361    -0.97200
O299        O  0.31002477  0.71682027  0.28555808    -0.54400
O300        O  0.27324390  0.75230858  0.25768315    -0.73700
C301        C  0.25151971  0.75070013  0.24432733     0.98600
O302        O  0.17881378  0.75072574  0.28940797    -0.62600
O303        O  0.24359626  0.66616261  0.40596736    -0.57400
O304        O  0.19597345  0.70926257  0.32057515    -0.94100
O305        O  0.21992439  0.67825442  0.34302664    -0.92500
O306        O  0.20252798  0.70882587  0.44589457    -0.92800
O307        O  0.17342833  0.74527609  0.41621735    -0.91600
C308        C  0.19991855  0.68609854  0.32862225     1.17400
H309        H  0.25708891  0.71112058  0.43697417     0.33400
H310        H  0.20155764  0.78253846  0.37453810     0.44200
H311        H  0.25392170  0.71312734  0.29672126     0.37800
H312        H  0.30454594  0.78655598  0.36246127     0.34200
H313        H  0.19146381  0.77410745  0.47117199     0.26000
H314        H  0.26287879  0.84978874  0.34182534     0.32000
H315        H  0.29230447  0.79956211  0.28082732     0.37900
H316        H  0.19405584  0.71424591  0.46677272     0.32300
H317        H  0.22548910  0.66898598  0.40992381     0.31200
H318        H  0.27206382  0.65305687  0.33730053     0.32900
H319        H  0.31535603  0.72371232  0.26350572     0.31900
H320        H  0.17034111  0.74248274  0.39200070     0.35900
H321        H  0.18005684  0.73734829  0.27227811     0.28600
H322        H  0.33283134  0.75858498  0.45744623     0.32800
H323        H  0.34183867  0.75505527  0.29667557     0.35700
H324        H  0.24434037  0.65042301  0.39283576     0.28300
H325        H  0.16578820  0.74479139  0.30532693     0.41200
H326        H  0.24180608  0.82777318  0.42871747     0.31200
H327        H  0.21055992  0.79345731  0.45597583     0.38800
H328        H  0.29641875  0.70488571  0.28007971     0.30700
H329        H  0.28559809  0.83287417  0.33124002     0.30700
H330        H  0.34315973  0.75888133  0.42039277     0.31000
Zr331      Zr  0.28406569  0.74926836  0.91742557     2.17500
O332        O  0.32337493  0.74596406  0.94853685    -0.51300
O333        O  0.26811591  0.74876309  0.97514597    -0.74600
O334        O  0.30501549  0.78998061  0.92573534    -0.81300
O335        O  0.28495938  0.67837110  0.89826706    -0.83100
O336        O  0.28379102  0.82022316  0.89726319    -0.78700
O337        O  0.30757692  0.71005614  0.92146987    -0.90300
O338        O  0.22570589  0.75105139  0.97585999    -0.76300
O339        O  0.24837475  0.77603321  0.91764501    -0.85800
O340        O  0.24839249  0.72219914  0.91901925    -0.85500
O341        O  0.28744093  0.77296511  0.86581784    -0.72200
O342        O  0.28621307  0.72359124  0.86804063    -0.84400
Zr343      Zr  0.21619226  0.74875937  0.81795274     2.26400
Zr344      Zr  0.25106486  0.79936283  0.86609674     2.06300
Zr345      Zr  0.24981781  0.69749094  0.86903427     2.10000
Zr346      Zr  0.21270243  0.74895800  0.91822587     1.78800
O347        O  0.26705443  0.66602432  0.83127063    -0.93200
O348        O  0.19075721  0.78557681  0.94000001    -0.41000
O349        O  0.21375532  0.72412113  0.86862024    -0.77600
O350        O  0.21421108  0.77363419  0.86824353    -0.96300
O351        O  0.25263159  0.77474635  0.81606307    -0.89600
O352        O  0.25149935  0.72104313  0.81760517    -0.92500
C353        C  0.24695583  0.75007297  0.99059156     1.01300
C354        C  0.30402391  0.68677035  0.91436217     1.14200
C355        C  0.30166848  0.81300837  0.91649271     1.05000
O356        O  0.23277708  0.83252739  0.90014718    -0.94600
O357        O  0.21727889  0.81961061  0.83615987    -0.90400
O358        O  0.19485141  0.78942746  0.80977416    -0.83500
C359        C  0.19855752  0.81245812  0.81851662     1.11600
O360        O  0.33309672  0.74830888  0.82604384    -0.96600
Zr361      Zr  0.28787509  0.74710229  0.81687787     1.88900
O362        O  0.23165681  0.74650190  0.76016921    -0.73200
O363        O  0.27099500  0.82849872  0.82684689    -0.52500
O364        O  0.30702192  0.78235519  0.78695280    -0.97200
O365        O  0.30886092  0.70918652  0.79734232    -0.54400
O366        O  0.27413458  0.74384028  0.75942704    -0.73700
C367        C  0.25277874  0.74449498  0.74482403     0.98600
O368        O  0.17754231  0.75226717  0.78549907    -0.62600
O369        O  0.23101525  0.66655801  0.90684482    -0.57400
O370        O  0.19158129  0.70947453  0.81776307    -0.94100
O371        O  0.21396964  0.67804127  0.84264053    -0.92500
O372        O  0.19464770  0.71262383  0.94689176    -0.92800
O373        O  0.16774683  0.74582002  0.90820511    -0.91600
C374        C  0.19471880  0.68635437  0.82683599     1.17400
H375        H  0.24859774  0.71156853  0.93875435     0.33400
H376        H  0.19912156  0.78356421  0.86958193     0.44200
H377        H  0.25092525  0.70975564  0.79871085     0.37800
H378        H  0.30267007  0.78273951  0.86476178     0.34200
H379        H  0.17877430  0.77870173  0.95669663     0.26000
H380        H  0.27155635  0.84472641  0.83889479     0.32000
H381        H  0.29293971  0.79086089  0.77534460     0.37900
H382        H  0.19069452  0.70065496  0.92869500     0.32300
H383        H  0.23562718  0.65006179  0.89723220     0.31200
H384        H  0.26057387  0.64979243  0.83999508     0.32900
H385        H  0.31730813  0.71432438  0.77624092     0.31900
H386        H  0.16623856  0.73914391  0.88512848     0.35900
H387        H  0.17844551  0.73886290  0.76838613     0.28600
H388        H  0.32151568  0.75711055  0.96821958     0.32800
H389        H  0.34082992  0.74895552  0.80343476     0.35700
H390        H  0.24070145  0.66760304  0.92797032     0.28300
H391        H  0.16387025  0.74705754  0.80089915     0.41200
H392        H  0.23440049  0.82645351  0.92360622     0.31200
H393        H  0.20341677  0.79463112  0.95348055     0.38800
H394        H  0.29520396  0.69786637  0.79009359     0.30700
H395        H  0.28870114  0.82296971  0.82587465     0.30700
H396        H  0.33630441  0.75408187  0.93425358     0.31000
Zr397      Zr  0.49738597  0.96309951  0.95635783     2.17500
O398        O  0.50091059  0.92315689  0.92687293    -0.51300
O399        O  0.49676424  0.97697521  0.89721902    -0.74600
O400        O  0.45674231  0.94153304  0.95097179    -0.81300
O401        O  0.56833009  0.96329541  0.97627512    -0.83100
O402        O  0.42666753  0.96375473  0.97821137    -0.78700
O403        O  0.53663747  0.93881285  0.95661364    -0.90300
O404        O  0.48885392  0.01888503  0.89549681    -0.76300
O405        O  0.47060569  0.99893550  0.95365770    -0.85800
O406        O  0.52425142  0.99889072  0.95205535    -0.85500
O407        O  0.47380492  0.96198276  0.00818684    -0.72200
O408        O  0.52261112  0.96289276  0.00634145    -0.84400
Zr409      Zr  0.49787954  0.03486539  0.05153445     2.26400
Zr410      Zr  0.44747059  0.99847369  0.00523205     2.06300
Zr411      Zr  0.54867384  0.99926622  0.00253665     2.10000
Zr412      Zr  0.49749544  0.03469404  0.95060594     1.78800
O413        O  0.57969746  0.98276033  0.04173435    -0.93200
O414        O  0.46233410  0.05990936  0.93061861    -0.41000
O415        O  0.52206924  0.03533623  0.00055185    -0.77600
O416        O  0.47324633  0.03538398  0.00085805    -0.96300
O417        O  0.47176984  0.99871084  0.05567046    -0.89600
O418        O  0.52538600  0.99947640  0.05405737    -0.92500
C419        C  0.49162717  0.99755433  0.88139852     1.01300
C420        C  0.55991292  0.94296805  0.96325618     1.14200
C421        C  0.43396227  0.94496754  0.96072913     1.05000
O422        O  0.41519286  0.01608062  0.96877670    -0.94600
O423        O  0.42694148  0.03284813  0.03314816    -0.90400
O424        O  0.45707031  0.05570227  0.05930436    -0.83500
C425        C  0.43422331  0.05185799  0.05019020     1.11600
O426        O  0.49789915  0.91761544  0.05389642    -0.96600
Zr427      Zr  0.49915331  0.96338673  0.05754047     1.88900
O428        O  0.49696805  0.02208897  0.11086314    -0.73200
O429        O  0.41776800  0.98065733  0.04537486    -0.52500
O430        O  0.46323827  0.94571549  0.08737964    -0.97200
O431        O  0.53680844  0.94459918  0.08170397    -0.54400
O432        O  0.49945661  0.97964967  0.11385456    -0.73700
C433        C  0.49799621  0.00131641  0.12759882     0.98600
O434        O  0.50160890  0.07796190  0.07164790    -0.62600
O435        O  0.58016646  0.01687519  0.96466601    -0.57400
O436        O  0.53803857  0.05658158  0.05771387    -0.94100
O437        O  0.56766739  0.03588591  0.02737934    -0.92500
O438        O  0.53437757  0.04884127  0.91957188    -0.92800
O439        O  0.50430133  0.07996621  0.95226620    -0.91600
C440        C  0.56046427  0.05391310  0.04632019     1.17400
H441        H  0.53472886  0.99791382  0.93231013     0.33400
H442        H  0.46330889  0.05048148  0.99886687     0.44200
H443        H  0.53650994  0.00064584  0.07313171     0.37800
H444        H  0.46419070  0.94672611  0.01076748     0.34200
H445        H  0.46710494  0.06521589  0.90759142     0.26000
H446        H  0.40124516  0.98217537  0.03422897     0.32000
H447        H  0.45356534  0.96043445  0.09531037     0.37900
H448        H  0.53279593  0.04138226  0.89695856     0.32300
H449        H  0.59628410  0.00991416  0.97281293     0.31200
H450        H  0.59584163  0.98988442  0.03389949     0.32900
H451        H  0.54411011  0.95776212  0.09619435     0.31900
H452        H  0.50145606  0.08451204  0.97604764     0.35900
H453        H  0.49255579  0.08855103  0.05507502     0.28600
H454        H  0.49059470  0.92506209  0.90637718     0.32800
H455        H  0.49951668  0.91143335  0.07731322     0.35700
H456        H  0.57741725  0.00856569  0.94281045     0.28300
H457        H  0.49141586  0.07875592  0.09237983     0.41200
H458        H  0.41805783  0.00826805  0.94659432     0.31200
H459        H  0.44860769  0.04763900  0.92736521     0.38800
H460        H  0.54865042  0.94321893  0.06263945     0.30700
H461        H  0.42132752  0.96237361  0.04559910     0.30700
H462        H  0.49200710  0.91053355  0.94087006     0.31000
Zr463      Zr  0.50276355  0.96512118  0.45887188     2.17500
O464        O  0.50894513  0.92335043  0.43526181    -0.51300
O465        O  0.50370452  0.97747191  0.39939235    -0.74600
O466        O  0.46275127  0.94271568  0.44965290    -0.81300
O467        O  0.57195040  0.96493433  0.48890726    -0.83100
O468        O  0.43140363  0.96726635  0.46994545    -0.78700
O469        O  0.54333933  0.94363158  0.45791174    -0.90300
O470        O  0.50086210  0.01998162  0.39509620    -0.76300
O471        O  0.47706643  0.00128913  0.45116169    -0.85800
O472        O  0.53033749  0.00057298  0.45769946    -0.85500
O473        O  0.47548863  0.96532728  0.50724760    -0.72200
O474        O  0.52451756  0.96524592  0.51182117    -0.84400
Zr475      Zr  0.49712683  0.03802332  0.55180014     2.26400
Zr476      Zr  0.45010955  0.00227852  0.49914683     2.06300
Zr477      Zr  0.55096967  0.00159373  0.51122447     2.10000
Zr478      Zr  0.50442605  0.03663991  0.45098955     1.78800
O479        O  0.57993814  0.98664448  0.55420799    -0.93200
O480        O  0.47042702  0.05957244  0.42367693    -0.41000
O481        O  0.52497849  0.03777722  0.50426511    -0.77600
O482        O  0.47653801  0.03875734  0.49787418    -0.96300
O483        O  0.47043898  0.00217997  0.55284768    -0.89600
O484        O  0.52390531  0.00246339  0.55917990    -0.92500
C485        C  0.50193787  0.99801737  0.38229198     1.01300
C486        C  0.56550833  0.94655077  0.47005910     1.14200
C487        C  0.43939409  0.94729234  0.45553796     1.05000
O488        O  0.42443169  0.02009249  0.45436241    -0.94600
O489        O  0.42797355  0.03739512  0.52375871    -0.90400
O490        O  0.45654501  0.05974537  0.55346369    -0.83500
C491        C  0.43441000  0.05636259  0.54154397     1.11600
O492        O  0.49888001  0.92072955  0.55786896    -0.96600
Zr493      Zr  0.49728355  0.96657452  0.55941294     1.88900
O494        O  0.49415570  0.02546004  0.61124144    -0.73200
O495        O  0.41439001  0.98758737  0.53201255    -0.52500
O496        O  0.45921013  0.94662343  0.58036081    -0.97200
O497        O  0.53291748  0.94911925  0.59009807    -0.54400
O498        O  0.49182224  0.98293216  0.61508277    -0.73700
C499        C  0.49180957  0.00484813  0.62813153     0.98600
O500        O  0.49915296  0.07900742  0.57895675    -0.62600
O501        O  0.58449907  0.01706914  0.47502299    -0.57400
O502        O  0.53564349  0.06238364  0.55643191    -0.94100
O503        O  0.56827007  0.03872880  0.53785661    -0.92500
O504        O  0.54368018  0.04987495  0.42494887    -0.92800
O505        O  0.51046764  0.08203978  0.45231608    -0.91600
C506        C  0.55909312  0.05874251  0.55092668     1.17400
H507        H  0.54231561  0.99917363  0.43960484     0.33400
H508        H  0.46712364  0.05400595  0.49422606     0.44200
H509        H  0.53355991  0.00379408  0.57965208     0.37800
H510        H  0.46542028  0.95033428  0.50908116     0.34200
H511        H  0.47816477  0.06734846  0.40351492     0.26000
H512        H  0.39982326  0.98929883  0.51676435     0.32000
H513        H  0.44696212  0.96053141  0.58224989     0.37900
H514        H  0.54069519  0.04893768  0.40045578     0.32300
H515        H  0.57938249  0.03439247  0.46886435     0.31200
H516        H  0.59666680  0.99208025  0.54616131     0.32900
H517        H  0.53850340  0.96256972  0.60545025     0.31900
H518        H  0.50262739  0.08731340  0.47369429     0.35900
H519        H  0.49130163  0.09115954  0.56320031     0.28600
H520        H  0.49927534  0.92322155  0.41407514     0.32800
H521        H  0.49731840  0.91507168  0.58153706     0.35700
H522        H  0.59902493  0.01935602  0.49015584     0.28300
H523        H  0.48758150  0.07797659  0.59835609     0.41200
H524        H  0.42549210  0.03853905  0.45735609     0.31200
H525        H  0.45931590  0.04635192  0.41457380     0.38800
H526        H  0.54647140  0.94785059  0.57318295     0.30700
H527        H  0.41689311  0.96921591  0.53450170     0.30700
H528        H  0.50001715  0.91157269  0.45049585     0.31000
Zr529      Zr  0.78476271  0.74434507  0.33279214     2.17500
O530        O  0.82621571  0.74664839  0.30704289    -0.51300
O531        O  0.77097040  0.73914813  0.27434590    -0.74600
O532        O  0.80549959  0.70314691  0.32997667    -0.81300
O533        O  0.78603421  0.81606032  0.34811755    -0.83100
O534        O  0.78302529  0.67478171  0.36050855    -0.78700
O535        O  0.80774487  0.78407018  0.32418746    -0.90300
O536        O  0.72855471  0.73736451  0.27338261    -0.76300
O537        O  0.74910076  0.71734896  0.33462170    -0.85800
O538        O  0.74889623  0.77079070  0.32686289    -0.85500
O539        O  0.78668797  0.72392543  0.38716307    -0.72200
O540        O  0.78539862  0.77253600  0.37959233    -0.84400
Zr541      Zr  0.71486119  0.75097926  0.43050016     2.26400
Zr542      Zr  0.75019652  0.69760612  0.38894704     2.06300
Zr543      Zr  0.74910891  0.79841905  0.37421388     2.10000
Zr544      Zr  0.71335537  0.74389834  0.32968310     1.78800
O545        O  0.76496457  0.83296699  0.40800870    -0.93200
O546        O  0.69359390  0.70405551  0.31513562    -0.41000
O547        O  0.71312913  0.77174746  0.37665538    -0.77600
O548        O  0.71325642  0.72313600  0.38288102    -0.96300
O549        O  0.75101705  0.72501828  0.43637123    -0.89600
O550        O  0.75007266  0.77854135  0.42844937    -0.92500
C551        C  0.74994484  0.73652557  0.25885615     1.01300
C552        C  0.80494170  0.80742616  0.33196759     1.14200
C553        C  0.80157193  0.68083439  0.34161532     1.05000
O554        O  0.73352810  0.66076104  0.36062319    -0.94600
O555        O  0.71614568  0.67915712  0.42054741    -0.90400
O556        O  0.69312185  0.71114842  0.44227663    -0.83500
C557        C  0.69716621  0.68765958  0.43663142     1.11600
O558        O  0.83167608  0.75373180  0.42726119    -0.96600
Zr559      Zr  0.78621630  0.75250974  0.43337532     1.88900
O560        O  0.72908442  0.75275798  0.48906143    -0.73200
O561        O  0.76988449  0.67208267  0.43253274    -0.52500
O562        O  0.80762269  0.71934099  0.46477374    -0.97200
O563        O  0.80352921  0.79262321  0.45156906    -0.54400
O564        O  0.77152459  0.75465139  0.49060144    -0.73700
C565        C  0.75003907  0.75409563  0.50492949     0.98600
O566        O  0.67456842  0.75733248  0.45829628    -0.62600
O567        O  0.73395439  0.82684163  0.33045886    -0.57400
O568        O  0.69279872  0.79139507  0.43089872    -0.94100
O569        O  0.71294305  0.81959355  0.39739037    -0.92500
O570        O  0.69507707  0.77820593  0.29713230    -0.92800
O571        O  0.66782118  0.74759599  0.33055511    -0.91600
C572        C  0.69504689  0.81332621  0.41727263     1.17400
H573        H  0.74947611  0.77996894  0.30586263     0.33400
H574        H  0.69816225  0.71316609  0.38238104     0.44200
H575        H  0.74916592  0.79084542  0.44615967     0.37800
H576        H  0.80182954  0.71418738  0.38982273     0.34200
H577        H  0.68028411  0.70832420  0.29878403     0.26000
H578        H  0.76786664  0.65454641  0.42473089     0.32000
H579        H  0.79446578  0.71133385  0.47877723     0.37900
H580        H  0.69876980  0.79350436  0.31027868     0.32300
H581        H  0.73964804  0.84367577  0.33771311     0.31200
H582        H  0.75463313  0.84769257  0.40154753     0.32900
H583        H  0.79115841  0.79954232  0.46758354     0.31900
H584        H  0.66358868  0.74942998  0.35462964     0.35900
H585        H  0.66202162  0.74880793  0.44401718     0.28600
H586        H  0.82575116  0.73497153  0.28779799     0.32800
H587        H  0.83829011  0.75718567  0.45000179     0.35700
H588        H  0.74420118  0.82329597  0.31030082     0.28300
H589        H  0.67526453  0.74720606  0.47924608     0.41200
H590        H  0.71816406  0.66681474  0.34926942     0.31200
H591        H  0.70637443  0.69501944  0.30179443     0.38800
H592        H  0.80242356  0.80376263  0.43159501     0.30700
H593        H  0.78804505  0.67550496  0.43019825     0.30700
H594        H  0.83786868  0.73882640  0.32340708     0.31000
Zr595      Zr  0.78564358  0.75211780  0.83705786     2.17500
O596        O  0.82937294  0.75702841  0.82012393    -0.51300
O597        O  0.77446540  0.75511204  0.77718625    -0.74600
O598        O  0.80641376  0.71182776  0.82460003    -0.81300
O599        O  0.78743233  0.82043452  0.87021843    -0.83100
O600        O  0.78245115  0.68033112  0.84582908    -0.78700
O601        O  0.80771056  0.79242486  0.83691114    -0.90300
O602        O  0.73212478  0.75619898  0.77323341    -0.76300
O603        O  0.74918295  0.72718113  0.82814215    -0.85800
O604        O  0.75096033  0.78055446  0.83653782    -0.85500
O605        O  0.78443562  0.72358811  0.88438373    -0.72200
O606        O  0.78506084  0.77255273  0.89082074    -0.84400
Zr607      Zr  0.71162924  0.74603459  0.92897719     2.26400
Zr608      Zr  0.74750433  0.69903773  0.87522067     2.06300
Zr609      Zr  0.74973864  0.80007140  0.89061772     2.10000
Zr610      Zr  0.71457411  0.75551223  0.82877365     1.78800
O611        O  0.76445002  0.82675553  0.93593215    -0.93200
O612        O  0.69204088  0.72324514  0.79779088    -0.41000
O613        O  0.71309538  0.77508124  0.88246228    -0.77600
O614        O  0.71156287  0.72628820  0.87449866    -0.96300
O615        O  0.74673605  0.71832083  0.92940571    -0.89600
O616        O  0.74762405  0.77182691  0.93762546    -0.92500
C617        C  0.75399118  0.75597455  0.76005707     1.01300
C618        C  0.80561144  0.81409167  0.85091478     1.14200
C619        C  0.80188914  0.68833022  0.83014108     1.05000
O620        O  0.73078884  0.67208141  0.83141231    -0.94600
O621        O  0.71237852  0.67669388  0.89878712    -0.90400
O622        O  0.69055666  0.70490182  0.92995072    -0.83500
C623        C  0.69385026  0.68286140  0.91745505     1.11600
O624        O  0.82815057  0.74400840  0.93118139    -0.96600
Zr625      Zr  0.78268986  0.74415068  0.93733300     1.88900
O626        O  0.72315108  0.74196814  0.98872466    -0.73200
O627        O  0.76242023  0.66376006  0.90914328    -0.52500
O628        O  0.80134252  0.70594123  0.96029067    -0.97200
O629        O  0.80082260  0.77803040  0.97039756    -0.54400
O630        O  0.76540380  0.73749111  0.99244779    -0.73700
C631        C  0.74349139  0.73817527  0.00545165     0.98600
O632        O  0.66982971  0.74769259  0.95390107    -0.62600
O633        O  0.73770821  0.83520305  0.85446222    -0.57400
O634        O  0.68814236  0.78555880  0.93357215    -0.94100
O635        O  0.71256737  0.81819966  0.91603154    -0.92500
O636        O  0.70132335  0.79593592  0.80571140    -0.92800
O637        O  0.66918855  0.76045285  0.82914098    -0.91600
C638        C  0.69220364  0.80917027  0.92840408     1.17400
H639        H  0.75277332  0.79296578  0.81885371     0.33400
H640        H  0.69627668  0.71706191  0.87055034     0.44200
H641        H  0.74629069  0.78103319  0.95838145     0.37800
H642        H  0.79923681  0.71319796  0.88562649     0.34200
H643        H  0.68496897  0.73211114  0.77799343     0.26000
H644        H  0.75824398  0.64863138  0.89588714     0.32000
H645        H  0.78796193  0.69313321  0.95844794     0.37900
H646        H  0.69357738  0.79186110  0.78381699     0.32300
H647        H  0.71942433  0.83323564  0.85116172     0.31200
H648        H  0.76044014  0.84407506  0.92837007     0.32900
H649        H  0.78717032  0.78396834  0.98522885     0.31900
H650        H  0.66373350  0.75198775  0.85012648     0.35900
H651        H  0.65836444  0.74021665  0.93715105     0.28600
H652        H  0.83099056  0.74841003  0.79826190     0.32800
H653        H  0.83487000  0.74266057  0.95429017     0.35700
H654        H  0.73939344  0.85026479  0.86878295     0.28300
H655        H  0.67008620  0.73558723  0.97289617     0.41200
H656        H  0.71306872  0.67731459  0.82903873     0.31200
H657        H  0.70533948  0.71239571  0.78833609     0.38800
H658        H  0.80342243  0.79196608  0.95414082     0.30700
H659        H  0.78094121  0.66479749  0.90828195     0.30700
H660        H  0.83922027  0.74669895  0.83617415     0.31000
Zr661      Zr  0.71220100  0.24750156  0.08241411     2.17500
O662        O  0.67377058  0.24241873  0.04992358    -0.51300
O663        O  0.72559553  0.24553027  0.02360455    -0.74600
O664        O  0.68963610  0.28749481  0.07521263    -0.81300
O665        O  0.71257605  0.17710436  0.10741603    -0.83100
O666        O  0.71430755  0.31893077  0.09496132    -0.78700
O667        O  0.68852609  0.20804138  0.08453135    -0.90300
O668        O  0.76763260  0.25163660  0.02108726    -0.76300
O669        O  0.74792176  0.27440897  0.07802298    -0.85800
O670        O  0.74784162  0.22044114  0.08094501    -0.85500
O671        O  0.71086319  0.27336237  0.13205260    -0.72200
O672        O  0.71155679  0.22377763  0.13402033    -0.84400
Zr673      Zr  0.78313306  0.25054236  0.17834259     2.26400
Zr674      Zr  0.74736694  0.29962191  0.12779148     2.06300
Zr675      Zr  0.74798627  0.19774676  0.13311246     2.10000
Zr676      Zr  0.78340794  0.24719385  0.07749604     1.78800
O677        O  0.73142787  0.16783203  0.17406907    -0.93200
O678        O  0.80880484  0.28056823  0.05261071    -0.41000
O679        O  0.78398903  0.22434889  0.12931660    -0.77600
O680        O  0.78411539  0.27363006  0.12583825    -0.96300
O681        O  0.74703978  0.27691445  0.17995621    -0.89600
O682        O  0.74775225  0.22322206  0.18241145    -0.92500
C683        C  0.74616771  0.24881237  0.00736534     1.01300
C684        C  0.69258317  0.18495870  0.09290235     1.14200
C685        C  0.69430600  0.31087575  0.08078914     1.05000
O686        O  0.76424339  0.33301087  0.09222904    -0.94600
O687        O  0.78155680  0.32114140  0.15578815    -0.90400
O688        O  0.80443689  0.29150897  0.18328542    -0.83500
C689        C  0.80042019  0.31436541  0.17369291     1.11600
O690        O  0.66628862  0.24686998  0.17656194    -0.96600
Zr691      Zr  0.71167447  0.24953920  0.18293423     1.88900
O692        O  0.76908589  0.25140228  0.23730843    -0.73200
O693        O  0.72704631  0.32965614  0.16489246    -0.52500
O694        O  0.69218163  0.28760799  0.20460934    -0.97200
O695        O  0.69317574  0.21400255  0.21310939    -0.54400
O696        O  0.72665516  0.25196867  0.23968475    -0.73700
C697        C  0.74822976  0.25207845  0.25365885     0.98600
O698        O  0.82334451  0.24808163  0.20741121    -0.62600
O699        O  0.76473377  0.16558621  0.09585829    -0.57400
O700        O  0.80707125  0.21109954  0.18081856    -0.94100
O701        O  0.78307641  0.17878070  0.16196711    -0.92500
O702        O  0.79674356  0.20846503  0.05043568    -0.92800
O703        O  0.82847877  0.24085268  0.08113670    -0.91600
C704        C  0.80318705  0.18760539  0.17490622     1.17400
H705        H  0.74695308  0.20904209  0.06217450     0.33400
H706        H  0.79916150  0.28354183  0.12338383     0.44200
H707        H  0.74878263  0.21278837  0.20231326     0.37800
H708        H  0.69574210  0.28320618  0.13387983     0.34200
H709        H  0.81324498  0.27437418  0.02996083     0.26000
H710        H  0.72897521  0.34606152  0.15324247     0.32000
H711        H  0.70486871  0.29510333  0.21966616     0.37900
H712        H  0.80145177  0.21356735  0.02731168     0.32300
H713        H  0.78310553  0.16575734  0.09936749     0.31200
H714        H  0.73288368  0.15123548  0.16309089     0.32900
H715        H  0.70721484  0.20585026  0.22524497     0.31900
H716        H  0.83331918  0.24903684  0.10243044     0.35900
H717        H  0.83582554  0.25582039  0.19207059     0.28600
H718        H  0.67497716  0.25463884  0.03110502     0.32800
H719        H  0.65925196  0.25084166  0.19893008     0.35700
H720        H  0.75908317  0.14942897  0.10581231     0.28300
H721        H  0.82206940  0.25974974  0.22662731     0.41200
H722        H  0.78130125  0.32726171  0.08620549     0.31200
H723        H  0.79682103  0.29442652  0.04834893     0.38800
H724        H  0.68863091  0.20185972  0.19537355     0.30700
H725        H  0.70893034  0.32586503  0.16312604     0.30700
H726        H  0.66012149  0.24885891  0.06432748     0.31000
Zr727      Zr  0.71104763  0.25301913  0.58521983     2.17500
O728        O  0.67004982  0.24960065  0.55847427    -0.51300
O729        O  0.72326474  0.25398450  0.52574780    -0.74600
O730        O  0.68905326  0.29340523  0.58125714    -0.81300
O731        O  0.71219813  0.18194966  0.60227967    -0.83100
O732        O  0.71269655  0.32419745  0.60487514    -0.78700
O733        O  0.68725418  0.21390332  0.58388204    -0.90300
O734        O  0.76558099  0.25595245  0.52164146    -0.76300
O735        O  0.74592158  0.28085839  0.58260127    -0.85800
O736        O  0.74713112  0.22688603  0.57958757    -0.85500
O737        O  0.71010039  0.27560150  0.63747443    -0.72200
O738        O  0.71198881  0.22627306  0.63406319    -0.84400
Zr739      Zr  0.78374152  0.25154372  0.67856578     2.26400
Zr740      Zr  0.74588955  0.30275195  0.63502782     2.06300
Zr741      Zr  0.74862590  0.20090846  0.62894932     2.10000
Zr742      Zr  0.78200389  0.25479877  0.57782618     1.78800
O743        O  0.73460307  0.16957456  0.66983775    -0.93200
O744        O  0.79894769  0.29320295  0.55295270    -0.41000
O745        O  0.78380058  0.22868333  0.62670133    -0.77600
O746        O  0.78312221  0.27786538  0.62897172    -0.96300
O747        O  0.74719535  0.27685766  0.68440294    -0.89600
O748        O  0.74897780  0.22315722  0.68116251    -0.92500
C749        C  0.74369583  0.25524303  0.50859500     1.01300
C750        C  0.69176182  0.19052358  0.58956759     1.14200
C751        C  0.69319928  0.31643541  0.58926784     1.05000
O752        O  0.76260283  0.33841002  0.60346345    -0.94600
O753        O  0.78007444  0.32300577  0.66386583    -0.90400
O754        O  0.80432825  0.29253626  0.68700189    -0.83500
C755        C  0.79965557  0.31574941  0.67978669     1.11600
O756        O  0.66714730  0.24294342  0.68076850    -0.96600
Zr757      Zr  0.71237764  0.24875002  0.68569631     1.88900
O758        O  0.77131739  0.24906099  0.73774988    -0.73200
O759        O  0.72455904  0.32810983  0.67705405    -0.52500
O760        O  0.68906015  0.28373602  0.70976708    -0.97200
O761        O  0.69745746  0.21100500  0.71467519    -0.54400
O762        O  0.72897211  0.25242126  0.74153215    -0.73700
C763        C  0.75083243  0.25102892  0.75455105     0.98600
O764        O  0.82444803  0.24801343  0.70620048    -0.62600
O765        O  0.76263525  0.16843386  0.59034360    -0.57400
O766        O  0.80924748  0.21325273  0.67642610    -0.94100
O767        O  0.78832399  0.18322933  0.64728755    -0.92500
O768        O  0.80154979  0.21946739  0.54936614    -0.92800
O769        O  0.82760347  0.25646100  0.58008361    -0.91600
C770        C  0.80745202  0.19111133  0.66372060     1.17400
H771        H  0.74618540  0.21669400  0.55963876     0.33400
H772        H  0.79788098  0.28824434  0.62697006     0.44200
H773        H  0.75072808  0.21168369  0.69994247     0.37800
H774        H  0.69485935  0.28512485  0.64029693     0.34200
H775        H  0.80656676  0.28783979  0.53146937     0.26000
H776        H  0.73226951  0.32328554  0.69877591     0.32000
H777        H  0.68431128  0.27794077  0.73258783     0.37900
H778        H  0.79718914  0.20469140  0.56345580     0.32300
H779        H  0.75435624  0.15282292  0.59830158     0.31200
H780        H  0.74859593  0.15739774  0.67152041     0.32900
H781        H  0.71151179  0.20536924  0.72908810     0.31900
H782        H  0.83157682  0.25859555  0.60418572     0.35900
H783        H  0.83648850  0.25724053  0.69170834     0.28600
H784        H  0.67035673  0.26157345  0.53931968     0.32800
H785        H  0.66061756  0.24272651  0.70406109     0.35700
H786        H  0.75449732  0.17234217  0.56859654     0.28300
H787        H  0.82308573  0.25817344  0.72687918     0.41200
H788        H  0.77977675  0.33326656  0.59699465     0.31200
H789        H  0.78405805  0.30312505  0.54617150     0.38800
H790        H  0.69631968  0.19811079  0.69691242     0.30700
H791        H  0.73049567  0.34547903  0.67282714     0.30700
H792        H  0.65788048  0.25677478  0.57460828     0.31000
Zr793      Zr  0.50120214  0.46352903  0.05378490     2.17500
O794        O  0.49847667  0.42337779  0.08371666    -0.51300
O795        O  0.50377730  0.47581254  0.11307669    -0.74600
O796        O  0.54184320  0.44180454  0.05652036    -0.81300
O797        O  0.43010506  0.46290419  0.03710997    -0.83100
O798        O  0.57077518  0.46419442  0.02677579    -0.78700
O799        O  0.46246586  0.43879950  0.05602240    -0.90300
O800        O  0.50870213  0.51810563  0.11648771    -0.76300
O801        O  0.52855248  0.49891993  0.05488952    -0.85800
O802        O  0.47515222  0.49962109  0.06115898    -0.85500
O803        O  0.52216835  0.46308575  0.99994256    -0.72200
O804        O  0.47351696  0.46478686  0.00618258    -0.84400
Zr805      Zr  0.49670853  0.53681392  0.96055314     2.26400
Zr806      Zr  0.54900629  0.49929047  0.00133416     2.06300
Zr807      Zr  0.44796628  0.50126303  0.01334341     2.10000
Zr808      Zr  0.50250894  0.53501766  0.06095810     1.78800
O809        O  0.41255360  0.48915654  0.97846463    -0.93200
O810        O  0.54071782  0.55533942  0.08028311    -0.41000
O811        O  0.47514855  0.53693659  0.01361670    -0.77600
O812        O  0.52410670  0.53641290  0.00850455    -0.96300
O813        O  0.52212785  0.50054638  0.95333070    -0.89600
O814        O  0.46859327  0.50193873  0.95973478    -0.92500
C815        C  0.50736495  0.49617033  0.12972630     1.01300
C816        C  0.43906765  0.44253951  0.04988626     1.14200
C817        C  0.56411014  0.44540146  0.04499916     1.05000
O818        O  0.58210197  0.51680608  0.03617679    -0.94600
O819        O  0.56821192  0.53297543  0.96963408    -0.90400
O820        O  0.53690651  0.55663169  0.94732227    -0.83500
C821        C  0.56018909  0.55201056  0.95293294     1.11600
O822        O  0.49351095  0.41987347  0.95612785    -0.96600
Zr823      Zr  0.49423503  0.46571144  0.95292491     1.88900
O824        O  0.49508812  0.52610396  0.90102447    -0.73200
O825        O  0.57708583  0.48277360  0.95859327    -0.52500
O826        O  0.52743663  0.44477451  0.92162287    -0.97200
O827        O  0.45459737  0.45011741  0.93077245    -0.54400
O828        O  0.49451423  0.48357815  0.89676595    -0.73700
C829        C  0.49484332  0.50573377  0.88384190     0.98600
O830        O  0.49297547  0.58082923  0.94329468    -0.62600
O831        O  0.42081342  0.51614423  0.05835932    -0.57400
O832        O  0.45684290  0.55856380  0.95617280    -0.94100
O833        O  0.42883141  0.53940584  0.99103805    -0.92500
O834        O  0.46820865  0.55172380  0.09455964    -0.92800
O835        O  0.49999940  0.58075358  0.05797121    -0.91600
C836        C  0.43532158  0.55699278  0.97048235     1.17400
H837        H  0.46567860  0.49847107  0.08178734     0.33400
H838        H  0.53441790  0.55130715  0.00922238     0.44200
H839        H  0.45658212  0.50370224  0.94168874     0.37800
H840        H  0.53156311  0.44780099  0.99659387     0.34200
H841        H  0.53580730  0.56404980  0.10118526     0.26000
H842        H  0.59230195  0.47723181  0.97077474     0.32000
H843        H  0.52003694  0.44078251  0.89948712     0.37900
H844        H  0.47644820  0.56041755  0.11350387     0.32300
H845        H  0.40385528  0.51657164  0.04830379     0.31200
H846        H  0.39773764  0.49057503  0.99333106     0.32900
H847        H  0.44913742  0.46286376  0.91407862     0.31900
H848        H  0.49301898  0.58436248  0.03541303     0.35900
H849        H  0.50344474  0.59049065  0.95918523     0.28600
H850        H  0.51087673  0.42438960  0.10215257     0.32800
H851        H  0.48735702  0.41407848  0.93403505     0.35700
H852        H  0.42005047  0.50221442  0.07496655     0.28300
H853        H  0.50161024  0.58227311  0.92132891     0.41200
H854        H  0.57900570  0.53517707  0.03609388     0.31200
H855        H  0.55154329  0.54129933  0.08790253     0.38800
H856        H  0.44258657  0.45179081  0.94960025     0.30700
H857        H  0.56899143  0.46705708  0.95106746     0.30700
H858        H  0.50532816  0.41066149  0.06812283     0.31000
Zr859      Zr  0.49669087  0.46660488  0.55572065     2.17500
O860        O  0.49085616  0.42770813  0.58770242    -0.51300
O861        O  0.49493992  0.48191935  0.61392333    -0.74600
O862        O  0.53653433  0.44468131  0.56542986    -0.81300
O863        O  0.42964034  0.46101230  0.51971328    -0.83100
O864        O  0.56857463  0.46910201  0.54620616    -0.78700
O865        O  0.45821832  0.44144109  0.55313501    -0.90300
O866        O  0.49489342  0.52450572  0.61432253    -0.76300
O867        O  0.52257314  0.50295405  0.55946339    -0.85800
O868        O  0.46888969  0.50184818  0.55394325    -0.85500
O869        O  0.52402310  0.46445331  0.50736621    -0.72200
O870        O  0.47566183  0.46455455  0.50249893    -0.84400
Zr871      Zr  0.50194445  0.53545862  0.45641432     2.26400
Zr872      Zr  0.54949494  0.50138880  0.51130328     2.06300
Zr873      Zr  0.44848730  0.50002313  0.50034635     2.10000
Zr874      Zr  0.49500520  0.53818734  0.55666061     1.78800
O875        O  0.41819090  0.48665633  0.45842056    -0.93200
O876        O  0.52857003  0.56039445  0.58551940    -0.41000
O877        O  0.47402243  0.53677148  0.50381748    -0.77600
O878        O  0.52301708  0.53788882  0.50993202    -0.96300
O879        O  0.52910858  0.49994452  0.45778719    -0.89600
O880        O  0.47557556  0.49931023  0.45231143    -0.92500
C881        C  0.49485716  0.50316839  0.62930630     1.01300
C882        C  0.43671910  0.44264056  0.53852561     1.14200
C883        C  0.55996564  0.44917206  0.56043185     1.05000
O884        O  0.58113942  0.52047826  0.54701743    -0.94600
O885        O  0.57113845  0.53561735  0.48373379    -0.90400
O886        O  0.54251789  0.55741095  0.45285073    -0.83500
C887        C  0.56470922  0.55414471  0.46484213     1.11600
O888        O  0.50100638  0.41825636  0.46166872    -0.96600
Zr889      Zr  0.50275544  0.46386406  0.45475687     1.88900
O890        O  0.50317025  0.52078012  0.39823059    -0.73200
O891        O  0.57959405  0.48042835  0.47491972    -0.52500
O892        O  0.54164386  0.44408875  0.43661458    -0.97200
O893        O  0.46782178  0.44409168  0.42560858    -0.54400
O894        O  0.50829216  0.47842322  0.39770544    -0.73700
C895        C  0.50656061  0.49982019  0.38296235     0.98600
O896        O  0.49977479  0.57416353  0.42313080    -0.62600
O897        O  0.41542823  0.51379880  0.53827408    -0.57400
O898        O  0.46324485  0.55964296  0.45196030    -0.94100
O899        O  0.43080509  0.53618557  0.47185104    -0.92500
O900        O  0.45650887  0.55666166  0.57851774    -0.92800
O901        O  0.49436924  0.58353846  0.54731856    -0.91600
C902        C  0.43978272  0.55587482  0.45746472     1.17400
H903        H  0.45697261  0.50123319  0.57220026     0.33400
H904        H  0.53252248  0.55316842  0.51235613     0.44200
H905        H  0.46583040  0.49958556  0.43183549     0.37800
H906        H  0.53406520  0.44942078  0.50668534     0.34200
H907        H  0.52015534  0.56945045  0.60404356     0.26000
H908        H  0.59615315  0.48619701  0.48300351     0.32000
H909        H  0.53750787  0.43595930  0.41502798     0.37900
H910        H  0.45284918  0.54736631  0.59959079     0.32300
H911        H  0.41642794  0.53240088  0.53794746     0.31200
H912        H  0.40199361  0.48592541  0.47055566     0.32900
H913        H  0.46674044  0.45273704  0.40357007     0.31900
H914        H  0.49844689  0.58575785  0.52320518     0.35900
H915        H  0.50717430  0.58751011  0.43724487     0.28600
H916        H  0.50124283  0.42960471  0.60811996     0.32800
H917        H  0.50289848  0.41115564  0.43887647     0.35700
H918        H  0.39962423  0.50989632  0.52638092     0.28300
H919        H  0.51179113  0.57187391  0.40442853     0.41200
H920        H  0.57265932  0.52290521  0.56887876     0.31200
H921        H  0.53842716  0.54707280  0.59691884     0.38800
H922        H  0.45278665  0.44982332  0.43796874     0.30700
H923        H  0.57885533  0.46242442  0.48141786     0.30700
H924        H  0.49926421  0.41438289  0.57455173     0.31000
Zr925      Zr  0.00125495  0.53745789  0.29536949     2.17500
O926        O  0.00477502  0.57859296  0.32186049    -0.51300
O927        O  0.00536157  0.52335805  0.35410720    -0.74600
O928        O  0.96035566  0.55679770  0.30754423    -0.81300
O929        O  0.06941780  0.54134234  0.26427106    -0.83100
O930        O  0.92932117  0.53253752  0.28607091    -0.78700
O931        O  0.04026586  0.56186992  0.29546124    -0.90300
O932        O  0.01052162  0.48099694  0.35632267    -0.76300
O933        O  0.97590820  0.50078581  0.30078600    -0.85800
O934        O  0.02945176  0.50260495  0.29476563    -0.85500
O935        O  0.97415488  0.53831959  0.24678648    -0.72200
O936        O  0.02277405  0.53939060  0.24224671    -0.84400
Zr937      Zr  0.99768155  0.46620563  0.19959640     2.26400
Zr938      Zr  0.94934553  0.50080291  0.25222287     2.06300
Zr939      Zr  0.05019678  0.50384017  0.24144907     2.10000
Zr940      Zr  0.00402014  0.46601043  0.29996262     1.78800
O941        O  0.07639140  0.51808947  0.19496831    -0.93200
O942        O  0.96944496  0.44833800  0.33247689    -0.41000
O943        O  0.02519143  0.46686858  0.24728210    -0.77600
O944        O  0.97614316  0.46448463  0.25294615    -0.96300
O945        O  0.97021983  0.50158846  0.19895956    -0.89600
O946        O  0.02341456  0.50272316  0.19333360    -0.92500
C947        C  0.00923476  0.50260881  0.37018625     1.01300
C948        C  0.06233666  0.55981433  0.28261310     1.14200
C949        C  0.93706409  0.55164708  0.30251158     1.05000
O950        O  0.91928179  0.48139541  0.29045137    -0.94600
O951        O  0.92780859  0.46692840  0.22427250    -0.90400
O952        O  0.95687261  0.44447778  0.19550620    -0.83500
C953        C  0.93433192  0.44816607  0.20617105     1.11600
O954        O  0.99393486  0.58386008  0.19315636    -0.96600
Zr955      Zr  0.99601037  0.53801776  0.19419408     1.88900
O956        O  0.99587092  0.47942816  0.14053277    -0.73200
O957        O  0.91695342  0.52004189  0.21738164    -0.52500
O958        O  0.95706464  0.55497647  0.17150498    -0.97200
O959        O  0.03226425  0.55779005  0.16748179    -0.54400
O960        O  0.99441654  0.52196225  0.13784833    -0.73700
C961        C  0.99448849  0.50029284  0.12407841     0.98600
O962        O  0.00186380  0.42598653  0.17089177    -0.62600
O963        O  0.08672637  0.49307671  0.27532561    -0.57400
O964        O  0.03721086  0.44262494  0.19678957    -0.94100
O965        O  0.06875925  0.46606859  0.21850382    -0.92500
O966        O  0.04228107  0.44608417  0.32016848    -0.92800
O967        O  0.00396241  0.42041562  0.29421053    -0.91600
C968        C  0.06047318  0.44622106  0.20411318     1.17400
H969        H  0.04161960  0.50368850  0.31266463     0.33400
H970        H  0.96666419  0.44916982  0.25571542     0.44200
H971        H  0.03319474  0.50190363  0.17298411     0.37800
H972        H  0.96371567  0.55313504  0.24630467     0.34200
H973        H  0.97757158  0.43758169  0.34969641     0.26000
H974        H  0.90101397  0.51555089  0.22870801     0.32000
H975        H  0.94766177  0.54013387  0.16346059     0.37900
H976        H  0.05201843  0.44226078  0.29963776     0.32300
H977        H  0.08437018  0.47519051  0.28164038     0.31200
H978        H  0.09373553  0.51675086  0.20358330     0.32900
H979        H  0.04016958  0.54450828  0.15374439     0.31900
H980        H  0.01041697  0.41742973  0.27124177     0.35900
H981        H  0.99163278  0.41372245  0.18375930     0.28600
H982        H  0.99552525  0.57715827  0.34337323     0.32800
H983        H  0.99361692  0.58866990  0.16907208     0.35700
H984        H  0.10096444  0.49301811  0.25934450     0.28300
H985        H  0.99302908  0.42819856  0.14923200     0.41200
H986        H  0.92640018  0.46459674  0.29551032     0.31200
H987        H  0.96252576  0.46266805  0.34528204     0.38800
H988        H  0.04427217  0.56074493  0.18597976     0.30700
H989        H  0.91871520  0.53837598  0.22092987     0.30700
H990        H  0.99473950  0.59029946  0.30785260     0.31000
Zr991      Zr  0.99710192  0.53620299  0.79532840     2.17500
O992        O  0.00034913  0.57628297  0.82459462    -0.51300
O993        O  0.99541127  0.52226241  0.85434860    -0.74600
O994        O  0.95677237  0.55867811  0.79875915    -0.81300
O995        O  0.06845720  0.53464460  0.77924035    -0.83100
O996        O  0.92730403  0.53729060  0.76930209    -0.78700
O997        O  0.03679613  0.55918270  0.79888011    -0.90300
O998        O  0.98784175  0.48029908  0.85656310    -0.76300
O999        O  0.96854576  0.50174096  0.79474393    -0.85800
O1000       O  0.02212375  0.49925981  0.80166569    -0.85500
O1001       O  0.97653868  0.53871165  0.74143087    -0.72200
O1002       O  0.02487288  0.53546911  0.74766715    -0.84400
Zr1003     Zr  0.99924685  0.46474777  0.69994880     2.26400
Zr1004     Zr  0.94855808  0.50349406  0.74073396     2.06300
Zr1005     Zr  0.04911909  0.49804375  0.75364512     2.10000
Zr1006     Zr  0.99366894  0.46485791  0.80055943     1.78800
O1007       O  0.08333316  0.51102141  0.71688773    -0.93200
O1008       O  0.95526229  0.44491098  0.82042931    -0.41000
O1009       O  0.02083830  0.46320349  0.75298392    -0.77600
O1010       O  0.97204090  0.46537112  0.74834451    -0.96300
O1011       O  0.97533498  0.50222833  0.69256823    -0.89600
O1012       O  0.02842446  0.49886674  0.70027625    -0.92500
C1013       C  0.99087230  0.50166596  0.87045528     1.01300
C1014       C  0.06009625  0.55488933  0.79269496     1.14200
C1015       C  0.93426721  0.55568108  0.78774272     1.05000
O1016       O  0.90999489  0.48924456  0.76744444    -0.94600
O1017       O  0.92842315  0.46923072  0.71160134    -0.90400
O1018       O  0.95859748  0.44365858  0.69073025    -0.83500
C1019       C  0.93551113  0.44882276  0.69738627     1.11600
O1020       O  0.00692374  0.58197494  0.69939720    -0.96600
Zr1021     Zr  0.00436313  0.53632707  0.69430342     1.88900
O1022       O  0.00210954  0.47786713  0.64088586    -0.73200
O1023       O  0.92609642  0.52536510  0.69603785    -0.52500
O1024       O  0.97006716  0.55780914  0.66564560    -0.97200
O1025       O  0.04344511  0.55340965  0.67183296    -0.54400
O1026       O  0.00785566  0.52013876  0.63776958    -0.73700
C1027       C  0.00579433  0.49839611  0.62429880     0.98600
O1028       O  0.00430299  0.42354684  0.67423845    -0.62600
O1029       O  0.07722803  0.48065956  0.79613997    -0.57400
O1030       O  0.03809066  0.44051305  0.69958453    -0.94100
O1031       O  0.06764578  0.46038343  0.73078882    -0.92500
O1032       O  0.02784302  0.44646891  0.83299586    -0.92800
O1033       O  0.99582196  0.41918262  0.79672106    -0.91600
C1034       C  0.06025900  0.44236503  0.71195160     1.17400
H1035       H  0.03175764  0.49952800  0.82220272     0.33400
H1036       H  0.96136537  0.45077256  0.75006467     0.44200
H1037       H  0.04044194  0.49710325  0.68231296     0.37800
H1038       H  0.96756188  0.55435506  0.73873371     0.34200
H1039       H  0.96001321  0.43653444  0.84178208     0.26000
H1040       H  0.90825154  0.52121962  0.70010583     0.32000
H1041       H  0.96574563  0.54689417  0.64646102     0.37900
H1042       H  0.01971477  0.43929186  0.85328287     0.32300
H1043       H  0.09416907  0.48208458  0.78611843     0.31200
H1044       H  0.09875379  0.50633627  0.72924949     0.32900
H1045       H  0.05224180  0.53896142  0.66159279     0.31900
H1046       H  0.00089276  0.41593922  0.77321210     0.35900
H1047       H  0.99305964  0.41188190  0.68656957     0.28600
H1048       H  0.98865739  0.57506667  0.84385788     0.32800
H1049       H  0.00894015  0.58849250  0.67619267     0.35700
H1050       H  0.07724353  0.49299252  0.81466257     0.28300
H1051       H  0.99695458  0.42531613  0.65154189     0.41200
H1052       H  0.91547055  0.47669901  0.78438577     0.31200
H1053       H  0.94438450  0.45905677  0.82732258     0.38800
H1054       H  0.05355278  0.55750867  0.69191118     0.30700
H1055       H  0.92746073  0.54344368  0.70159598     0.30700
H1056       H  0.99292281  0.58907769  0.80939484     0.31000
C1057       C  0.99377851  0.51615632  0.46118232    -0.02000
C1058       C  0.01149445  0.50131001  0.47858607     0.06600
C1059       C  0.02956300  0.48804508  0.46021098    -0.08000
C1060       C  0.02964651  0.48873297  0.42493304     0.04000
C1061       C  0.01159440  0.50330469  0.40738960    -0.15200
C1062       C  0.99412055  0.51728715  0.42594905    -0.08600
C1063       C  0.01124815  0.49934537  0.51594987     0.04900
C1064       C  0.99331193  0.48399619  0.53185038    -0.09700
C1065       C  0.99172882  0.48265157  0.56707264    -0.00100
C1066       C  0.00800771  0.49727459  0.58704583    -0.00200
C1067       C  0.02619148  0.51229003  0.57096914    -0.13200
C1068       C  0.02808573  0.51320614  0.53583665     0.00300
C1069       C  0.97257008  0.46699491  0.58202633     0.39600
C1070       C  0.04707153  0.52898386  0.52071852     0.36200
C1071       C  0.97487222  0.53013238  0.47906907     0.35900
C1072       C  0.04864884  0.47452362  0.40746082     0.36700
N1073       N  0.95725983  0.45444858  0.59413651    -0.44100
N1074       N  0.06233666  0.54162219  0.50867198    -0.44600
N1075       N  0.06393904  0.46305989  0.39370590    -0.41900
N1076       N  0.95970548  0.54123353  0.49355509    -0.43400
H1077       H  0.98008984  0.52840018  0.41287704     0.12800
H1078       H  0.04338506  0.47680468  0.47349027     0.09300
H1079       H  0.98034621  0.47324504  0.51665588     0.10400
H1080       H  0.03894013  0.52346644  0.58594844     0.16200
C1081       C  0.00309761  0.47796401  0.03417309    -0.02000
C1082       C  0.99345496  0.49844214  0.01560911     0.06600
C1083       C  0.98324557  0.51896731  0.03253688    -0.08000
C1084       C  0.98282583  0.51969106  0.06759815     0.04000
C1085       C  0.99321942  0.49957390  0.08667723    -0.15200
C1086       C  0.00303348  0.47870154  0.06943440    -0.08600
C1087       C  0.99332709  0.49899691  0.97841909     0.04900
C1088       C  0.97442880  0.48609508  0.96134004    -0.09700
C1089       C  0.97274382  0.48735591  0.92628204    -0.00100
C1090       C  0.99017099  0.50198720  0.90767224    -0.00200
C1091       C  0.00885802  0.51522864  0.92500305    -0.13200
C1092       C  0.01063856  0.51369278  0.96008977     0.00300
C1093       C  0.95249739  0.47394352  0.91035243     0.39600
C1094       C  0.03070292  0.52682280  0.97682096     0.36200
C1095       C  0.01329584  0.45618471  0.01752705     0.35900
C1096       C  0.97084799  0.54110999  0.08292225     0.36700
N1097       N  0.93608209  0.46307985  0.89819701    -0.44100
N1098       N  0.04682668  0.53720326  0.99034657    -0.44600
N1099       N  0.96117462  0.55836221  0.09487770    -0.41900
N1100       N  0.02137575  0.43869291  0.00415593    -0.43400
H1101       H  0.01096059  0.46306012  0.08345636     0.12800
H1102       H  0.97538684  0.53448651  0.01815786     0.09300
H1103       H  0.96083740  0.47515434  0.97552317     0.10400
H1104       H  0.02260538  0.52611396  0.91103752     0.16200
C1105       C  0.51097101  0.48976722  0.79384153    -0.02000
C1106       C  0.49706964  0.50765297  0.77536818     0.06600
C1107       C  0.48305622  0.52579220  0.79274009    -0.08000
C1108       C  0.48235954  0.52595397  0.82803006     0.04000
C1109       C  0.49565244  0.50747579  0.84654310    -0.15200
C1110       C  0.50997677  0.48965088  0.82897845    -0.08600
C1111       C  0.49631283  0.50698701  0.73797926     0.04900
C1112       C  0.48582189  0.48595175  0.72214588    -0.09700
C1113       C  0.48520531  0.48408420  0.68702456    -0.00100
C1114       C  0.49517619  0.50368025  0.66682849    -0.00200
C1115       C  0.50552836  0.52486315  0.68294156    -0.13200
C1116       C  0.50622730  0.52660269  0.71806766     0.00300
C1117       C  0.47350043  0.46217916  0.67267896     0.39600
C1118       C  0.51794761  0.54826847  0.73316059     0.36200
C1119       C  0.52685554  0.47169582  0.77721911     0.35900
C1120       C  0.46702103  0.54456716  0.84445314     0.36700
N1121       N  0.46403762  0.44454704  0.66145034    -0.44100
N1122       N  0.52737664  0.56554773  0.74538523    -0.44600
N1123       N  0.45472088  0.55952100  0.85755292    -0.41900
N1124       N  0.53965228  0.45733666  0.76378272    -0.43400
H1125       H  0.52065752  0.47564272  0.84279842     0.12800
H1126       H  0.47228722  0.53958019  0.77865775     0.09300
H1127       H  0.47801751  0.47088530  0.73740988     0.10400
H1128       H  0.51349957  0.54005030  0.66806080     0.16200
C1129       C  0.49135430  0.47975674  0.21992119    -0.02000
C1130       C  0.50706255  0.49627629  0.23776525     0.06600
C1131       C  0.52427002  0.51121617  0.22019403    -0.08000
C1132       C  0.52545634  0.51065703  0.18512249     0.04000
C1133       C  0.50914107  0.49476613  0.16688185    -0.15200
C1134       C  0.49257249  0.47901808  0.18471722    -0.08600
C1135       C  0.50669492  0.49770876  0.27489685     0.04900
C1136       C  0.52429417  0.48364443  0.29304567    -0.09700
C1137       C  0.52497820  0.48453906  0.32813985    -0.00100
C1138       C  0.50792402  0.50003011  0.34575119    -0.00200
C1139       C  0.49081495  0.51478456  0.32736632    -0.13200
C1140       C  0.48996777  0.51358434  0.29218122     0.00300
C1141       C  0.54379667  0.46975398  0.34524506     0.39600
C1142       C  0.47167110  0.52855692  0.27433770     0.36200
C1143       C  0.47373139  0.46363121  0.23720916     0.35900
C1144       C  0.54399671  0.52631229  0.16880563     0.36700
N1145       N  0.55901081  0.45781628  0.35856349    -0.44100
N1146       N  0.45694707  0.54052004  0.26008072    -0.44600
N1147       N  0.55909374  0.53897373  0.15643282    -0.41900
N1148       N  0.45957870  0.45068647  0.25100993    -0.43400
H1149       H  0.47991649  0.46680245  0.17111060     0.12800
H1150       H  0.53675515  0.52348922  0.23401420     0.09300
H1151       H  0.53749330  0.47182499  0.27967685     0.10400
H1152       H  0.47758732  0.52668373  0.34054022     0.16200
C1153       C  0.86349069  0.34526670  0.69542630    -0.02000
C1154       C  0.85846870  0.37118116  0.69081121     0.06600
C1155       C  0.83366423  0.37877124  0.68501265    -0.08000
C1156       C  0.81402623  0.36140051  0.68405406     0.04000
C1157       C  0.81901967  0.33525960  0.68731703    -0.15200
C1158       C  0.84388289  0.32767093  0.69368426    -0.08600
C1159       C  0.87840180  0.39093319  0.69222681     0.04900
C1160       C  0.89958211  0.38934967  0.67127557    -0.09700
C1161       C  0.91828073  0.40802270  0.67152124    -0.00100
C1162       C  0.91569570  0.42925742  0.69257177    -0.00200
C1163       C  0.89406103  0.43093505  0.71282712    -0.13200
C1164       C  0.87581960  0.41211020  0.71313454     0.00300
C1165       C  0.93943969  0.40483572  0.64939548     0.39600
C1166       C  0.85500035  0.41468133  0.73613599     0.36200
C1167       C  0.88857021  0.33608959  0.70148533     0.35900
C1168       C  0.78902193  0.37135354  0.67983667     0.36700
N1169       N  0.95609938  0.40165517  0.63128328    -0.44100
N1170       N  0.83821225  0.41674900  0.75434897    -0.44600
N1171       N  0.76909975  0.37961167  0.67650817    -0.41900
N1172       N  0.90863784  0.32851091  0.70598251    -0.43400
H1173       H  0.84827469  0.30782624  0.69614984     0.12800
H1174       H  0.82955757  0.39856616  0.68107095     0.09300
H1175       H  0.90143177  0.37353298  0.65438712     0.10400
H1176       H  0.89165910  0.44663567  0.72977602     0.16200
C1177       C  0.66012790  0.37581333  0.56071709    -0.02000
C1178       C  0.63651051  0.37304563  0.57643550     0.06600
C1179       C  0.63123178  0.35084385  0.59428908    -0.08000
C1180       C  0.64927757  0.33190508  0.59766072     0.04000
C1181       C  0.67316534  0.33498287  0.58289098    -0.15200
C1182       C  0.67839230  0.35699133  0.56451637    -0.08600
C1183       C  0.61671747  0.39269003  0.57412955     0.04900
C1184       C  0.59413967  0.38672771  0.55806463    -0.09700
C1185       C  0.57499316  0.40457546  0.55484402    -0.00100
C1186       C  0.57821626  0.42899694  0.56803691    -0.00200
C1187       C  0.60064331  0.43485755  0.58464698    -0.13200
C1188       C  0.61972360  0.41685473  0.58815059     0.00300
C1189       C  0.55293850  0.39781447  0.53590587     0.39600
C1190       C  0.64208550  0.42353453  0.60642973     0.36200
C1191       C  0.66571847  0.39744337  0.53989480     0.35900
C1192       C  0.64338657  0.31024960  0.61833102     0.36700
N1193       N  0.53532741  0.39239484  0.52062482    -0.44100
N1194       N  0.66002066  0.42894293  0.62102895    -0.44600
N1195       N  0.63870950  0.29301318  0.63511390    -0.41900
N1196       N  0.67003129  0.41477336  0.52310762    -0.43400
H1197       H  0.69670478  0.35941485  0.55307598     0.12800
H1198       H  0.61309200  0.34856649  0.60627715     0.09300
H1199       H  0.59170262  0.36817773  0.54733589     0.10400
H1200       H  0.60333416  0.45361058  0.59459806     0.16200
C1201       C  0.73558661  0.22801883  0.91764990    -0.02000
C1202       C  0.74799767  0.24723672  0.89944671     0.06600
C1203       C  0.75857357  0.26744066  0.91679948    -0.08000
C1204       C  0.75753992  0.26854626  0.95180148     0.04000
C1205       C  0.74551885  0.24922116  0.97023621    -0.15200
C1206       C  0.73434987  0.22920721  0.95286282    -0.08600
C1207       C  0.74928069  0.24771269  0.86222941     0.04900
C1208       C  0.73642576  0.26687222  0.84508595    -0.09700
C1209       C  0.73773977  0.26893755  0.81012354    -0.00100
C1210       C  0.75200092  0.25145061  0.79159482    -0.00200
C1211       C  0.76575739  0.23290843  0.80880065    -0.13200
C1212       C  0.76450245  0.23092603  0.84393261     0.00300
C1213       C  0.72501030  0.28970206  0.79388596     0.39600
C1214       C  0.77920069  0.21181276  0.86067597     0.36200
C1215       C  0.72371682  0.20720638  0.90079495     0.35900
C1216       C  0.76845294  0.29011191  0.96807820     0.36700
N1217       N  0.71501564  0.30643051  0.78082565    -0.44100
N1218       N  0.79099779  0.19648492  0.87407814    -0.44600
N1219       N  0.77719306  0.30752243  0.98084047    -0.41900
N1220       N  0.71418430  0.19047485  0.88742257    -0.43400
H1221       H  0.72513432  0.21425254  0.96684186     0.12800
H1222       H  0.76776734  0.28242960  0.90284124     0.09300
H1223       H  0.72540275  0.28034484  0.85916417     0.10400
H1224       H  0.77689126  0.21952912  0.79473710     0.16200
C1225       C  0.72563975  0.26404061  0.34264907    -0.02000
C1226       C  0.74544640  0.25459826  0.36245121     0.06600
C1227       C  0.76657968  0.24442175  0.34632025    -0.08000
C1228       C  0.76828493  0.24372377  0.31110419     0.04000
C1229       C  0.74839189  0.25315861  0.29117369    -0.15200
C1230       C  0.72723441  0.26322645  0.30757100    -0.08600
C1231       C  0.74457355  0.25547814  0.39992423     0.04900
C1232       C  0.72512476  0.24313691  0.41729777    -0.09700
C1233       C  0.72378702  0.24349307  0.45253119    -0.00100
C1234       C  0.74255378  0.25596161  0.47119608    -0.00200
C1235       C  0.76178511  0.26859490  0.45362131    -0.13200
C1236       C  0.76281998  0.26860246  0.41847300     0.00300
C1237       C  0.70336532  0.23029834  0.46868557     0.39600
C1238       C  0.78253944  0.28262912  0.40195150     0.36200
C1239       C  0.70367637  0.27522074  0.35767923     0.35900
C1240       C  0.79031189  0.23254822  0.29630412     0.36700
N1241       N  0.68687442  0.21983978  0.48153331    -0.44100
N1242       N  0.79830240  0.29382412  0.38857485    -0.44600
N1243       N  0.80797832  0.22362473  0.28440201    -0.41900
N1244       N  0.68604903  0.28413417  0.36969533    -0.43400
H1245       H  0.71179874  0.27075782  0.29291965     0.12800
H1246       H  0.78179992  0.23688724  0.36137172     0.09300
H1247       H  0.71100811  0.23299826  0.40323041     0.10400
H1248       H  0.77612714  0.27863876  0.46741790     0.16200
C1249       C  0.86389773  0.34534026  0.18756623    -0.02000
C1250       C  0.85758008  0.37110987  0.18919252     0.06600
C1251       C  0.83217139  0.37794967  0.18791066    -0.08000
C1252       C  0.81326217  0.35979776  0.18453877     0.04000
C1253       C  0.81954575  0.33398635  0.18177722    -0.15200
C1254       C  0.84499537  0.32710147  0.18402418    -0.08600
C1255       C  0.87706091  0.39117596  0.19301538     0.04900
C1256       C  0.89573657  0.39438055  0.16830184    -0.09700
C1257       C  0.91434623  0.41303158  0.17140557    -0.00100
C1258       C  0.91459085  0.42884278  0.19983029    -0.00200
C1259       C  0.89556647  0.42582339  0.22407690    -0.13200
C1260       C  0.87698774  0.40742368  0.22089096     0.00300
C1261       C  0.93223752  0.41623368  0.14449130     0.39600
C1262       C  0.85829564  0.40539930  0.24704213     0.36200
C1263       C  0.88968365  0.33720573  0.18952586     0.35900
C1264       C  0.78754118  0.36826560  0.18479994     0.36700
N1265       N  0.94648541  0.41902653  0.12284216    -0.44100
N1266       N  0.84323352  0.40403088  0.26791612    -0.44600
N1267       N  0.76694095  0.37508659  0.18515862    -0.41900
N1268       N  0.91042276  0.33089694  0.19096595    -0.43400
H1269       H  0.85026612  0.30746655  0.18194443     0.12800
H1270       H  0.82706782  0.39766447  0.18946005     0.09300
H1271       H  0.89561623  0.38241993  0.14634278     0.10400
H1272       H  0.89537466  0.43765817  0.24616646     0.16200
C1273       C  0.61031537  0.40222122  0.08867063    -0.02000
C1274       C  0.62063968  0.38929130  0.06108810     0.06600
C1275       C  0.61203843  0.39454943  0.02864732    -0.08000
C1276       C  0.59332521  0.41248439  0.02327018     0.04000
C1277       C  0.58311598  0.42574312  0.05069263    -0.15200
C1278       C  0.59158696  0.42037343  0.08331718    -0.08600
C1279       C  0.63968361  0.36934282  0.06541233     0.04900
C1280       C  0.63172064  0.34498273  0.07360925    -0.09700
C1281       C  0.64901318  0.32536597  0.07745962    -0.00100
C1282       C  0.67493375  0.33003183  0.07272363    -0.00200
C1283       C  0.68272954  0.35455974  0.06412667    -0.13200
C1284       C  0.66535633  0.37412743  0.06040448     0.00300
C1285       C  0.63958142  0.30123369  0.08849610     0.39600
C1286       C  0.67425587  0.39906797  0.05210763     0.36200
C1287       C  0.61885816  0.39719447  0.12244617     0.35900
C1288       C  0.58391416  0.41585363  0.98955794     0.36700
N1289       N  0.63166254  0.28210177  0.09761795    -0.44100
N1290       N  0.68135696  0.41907431  0.04549803    -0.44600
N1291       N  0.57627781  0.41802661  0.96250821    -0.41900
N1292       N  0.62585536  0.39304500  0.14942429    -0.43400
H1293       H  0.58378364  0.43050449  0.10444630     0.12800
H1294       H  0.61966770  0.38423851  0.00754250     0.09300
H1295       H  0.61189682  0.34139317  0.07745925     0.10400
H1296       H  0.70252034  0.35855309  0.06078726     0.16200
C1297       C  0.86504931  0.65943347  0.80809743    -0.02000
C1298       C  0.85956435  0.63350996  0.80821202     0.06600
C1299       C  0.83478093  0.62565300  0.81298524    -0.08000
C1300       C  0.81557039  0.64303849  0.81880285     0.04000
C1301       C  0.82100743  0.66922003  0.81996444    -0.15200
C1302       C  0.84588756  0.67700411  0.81391704    -0.08600
C1303       C  0.87917936  0.61408714  0.80276117     0.04900
C1304       C  0.89592999  0.60802037  0.82878919    -0.09700
C1305       C  0.91385947  0.58886076  0.82486308    -0.00100
C1306       C  0.91523299  0.57550418  0.79434038    -0.00200
C1307       C  0.89822421  0.58159024  0.76850465    -0.13200
C1308       C  0.88037195  0.60063723  0.77248068     0.00300
C1309       C  0.92972360  0.58245834  0.85299260     0.39600
C1310       C  0.86359374  0.60636162  0.74502387     0.36200
C1311       C  0.89013930  0.66840684  0.80161500     0.35900
C1312       C  0.79060413  0.63309344  0.82357706     0.36700
N1313       N  0.94232264  0.57717320  0.87560985    -0.44100
N1314       N  0.85005157  0.61111320  0.72319697    -0.44600
N1315       N  0.77071574  0.62487988  0.82753684    -0.41900
N1316       N  0.91022615  0.67561692  0.79623616    -0.43400
H1317       H  0.85060444  0.69683840  0.81452703     0.12800
H1318       H  0.83048628  0.60569956  0.81252561     0.09300
H1319       H  0.89470321  0.61801856  0.85238868     0.10400
H1320       H  0.89909843  0.57167042  0.74481217     0.16200
C1321       C  0.64880238  0.63028944  0.89810661    -0.02000
C1322       C  0.63521347  0.62800854  0.92828967     0.06600
C1323       C  0.64130385  0.64345670  0.95556669    -0.08000
C1324       C  0.66063837  0.66122774  0.95296563     0.04000
C1325       C  0.67420001  0.66360185  0.92264625    -0.15200
C1326       C  0.66823097  0.64780401  0.89560408    -0.08600
C1327       C  0.61536408  0.60876154  0.93219699     0.04900
C1328       C  0.62220468  0.58333786  0.93136480    -0.09700
C1329       C  0.60435394  0.56441091  0.93606715    -0.00100
C1330       C  0.57898285  0.57088097  0.94195355    -0.00200
C1331       C  0.57203166  0.59642561  0.94120225    -0.13200
C1332       C  0.59000647  0.61532691  0.93658990     0.00300
C1333       C  0.61274855  0.53860641  0.93454554     0.39600
C1334       C  0.58210262  0.64130929  0.93673070     0.36200
C1335       C  0.64237259  0.61558476  0.86896285     0.35900
C1336       C  0.66695586  0.67595477  0.98209344     0.36700
N1337       N  0.61969945  0.51800815  0.93328227    -0.44100
N1338       N  0.57585505  0.66216023  0.93690397    -0.44600
N1339       N  0.67224649  0.68771716  0.00539246    -0.41900
N1340       N  0.63696579  0.60387492  0.84566422    -0.43400
H1341       H  0.67826281  0.64968106  0.87200082     0.12800
H1342       H  0.63113162  0.64137513  0.97902680     0.09300
H1343       H  0.64169870  0.57829510  0.92746404     0.10400
H1344       H  0.55270025  0.60175764  0.94571073     0.16200
C1345       C  0.77101037  0.74331010  0.59488240    -0.02000
C1346       C  0.75264051  0.75628289  0.61353223     0.06600
C1347       C  0.73309991  0.76848300  0.59616243    -0.08000
C1348       C  0.73139264  0.76753325  0.56100462     0.04000
C1349       C  0.74992487  0.75473605  0.54232622    -0.15200
C1350       C  0.76962159  0.74281676  0.55974756    -0.08600
C1351       C  0.75299025  0.75654410  0.65109001     0.04900
C1352       C  0.77426258  0.76540300  0.66823316    -0.09700
C1353       C  0.77543117  0.76513296  0.70352578    -0.00100
C1354       C  0.75477078  0.75623438  0.72250958    -0.00200
C1355       C  0.73343264  0.74763740  0.70509489    -0.13200
C1356       C  0.73243906  0.74760370  0.66998991     0.00300
C1357       C  0.79779390  0.77469216  0.71932666     0.39600
C1358       C  0.71038877  0.73746593  0.65392370     0.36200
C1359       C  0.79112040  0.72976231  0.61120795     0.35900
C1360       C  0.71089359  0.78053456  0.54480647     0.36700
N1361       N  0.81579880  0.78235843  0.73181645    -0.44100
N1362       N  0.69280197  0.72943383  0.64079578    -0.44600
N1363       N  0.69442371  0.79091564  0.53185023    -0.41900
N1364       N  0.80725814  0.71897862  0.62433352    -0.43400
H1365       H  0.78390016  0.73273622  0.54583935     0.12800
H1366       H  0.71903511  0.77876006  0.61019179     0.09300
H1367       H  0.79004743  0.77261615  0.65393430     0.10400
H1368       H  0.71741981  0.74043014  0.71894439     0.16200
C1369       C  0.77015791  0.74119071  0.16725907    -0.02000
C1370       C  0.74870600  0.73232269  0.15040548     0.06600
C1371       C  0.72875851  0.72256210  0.16911572    -0.08000
C1372       C  0.72928214  0.72252888  0.20423789     0.04000
C1373       C  0.75003322  0.73304905  0.22160103    -0.15200
C1374       C  0.77063213  0.74164627  0.20254871    -0.08600
C1375       C  0.74628352  0.73345057  0.11327397     0.04900
C1376       C  0.75849045  0.71538221  0.09381386    -0.09700
C1377       C  0.75658388  0.71583080  0.05874570    -0.00100
C1378       C  0.74232687  0.73477773  0.04244326    -0.00200
C1379       C  0.72931457  0.75233533  0.06209470    -0.13200
C1380       C  0.73122282  0.75178817  0.09729991     0.00300
C1381       C  0.76907858  0.69625147  0.04015786     0.39600
C1382       C  0.71823607  0.77060074  0.11669428     0.36200
C1383       C  0.79163831  0.75036298  0.14881427     0.35900
C1384       C  0.70824592  0.71109060  0.22128542     0.36700
N1385       N  0.77904139  0.68033530  0.02562376    -0.44100
N1386       N  0.70794476  0.78554108  0.13260979    -0.44600
N1387       N  0.69115063  0.70171602  0.23416029    -0.41900
N1388       N  0.80892514  0.75754815  0.13401082    -0.43400
H1389       H  0.78686658  0.74942287  0.21513741     0.12800
H1390       H  0.71254689  0.71508513  0.15610305     0.09300
H1391       H  0.76956100  0.70089341  0.10610676     0.10400
H1392       H  0.71847223  0.76704644  0.04992533     0.16200
C1393       C  0.90479392  0.61385411  0.31827537    -0.02000
C1394       C  0.87997070  0.60627960  0.32533006     0.06600
C1395       C  0.87454806  0.58052549  0.32798563    -0.08000
C1396       C  0.89313323  0.56237078  0.32268666     0.04000
C1397       C  0.91779370  0.56988524  0.31398922    -0.15200
C1398       C  0.92340122  0.59572795  0.31268254    -0.02200
C1399       C  0.85930212  0.62486683  0.32927389     0.04900
C1400       C  0.85367857  0.64136796  0.30257466    -0.09700
C1401       C  0.83462940  0.65943498  0.30547265    -0.00100
C1402       C  0.82062766  0.66103275  0.33551158    -0.00200
C1403       C  0.82579566  0.64394685  0.36174976    -0.13200
C1404       C  0.84492474  0.62609771  0.35896401     0.00300
C1405       C  0.82942563  0.67552864  0.27697035     0.39600
C1406       C  0.84991796  0.60986175  0.38741638     0.36200
C1407       C  0.91162219  0.64012996  0.31686047     0.35900
C1408       C  0.88626953  0.53623475  0.32668521     0.36700
N1409       N  0.82526410  0.68830852  0.25399446    -0.44100
N1410       N  0.85376112  0.59684808  0.41025716    -0.44600
N1411       N  0.88051007  0.51537859  0.33009391    -0.41900
N1412       N  0.91697482  0.66122172  0.31581699    -0.43400
H1413       H  0.94218010  0.60185475  0.30610281     0.12800
H1414       H  0.85555088  0.57456106  0.33365125     0.09300
H1415       H  0.86423764  0.64009504  0.27935073     0.10400
H1416       H  0.81535230  0.64502925  0.38509459     0.16200
C1417       C  0.63321498  0.65802483  0.44527558    -0.02000
C1418       C  0.63935329  0.63268980  0.45210513     0.06600
C1419       C  0.66454606  0.62602007  0.45688653    -0.08000
C1420       C  0.68357420  0.64401612  0.45447956     0.04000
C1421       C  0.67759971  0.66918447  0.44603747    -0.15200
C1422       C  0.65230562  0.67597869  0.44212861    -0.08600
C1423       C  0.61987787  0.61286812  0.45531099     0.04900
C1424       C  0.60488163  0.60683553  0.42748025    -0.09700
C1425       C  0.58686428  0.58761766  0.42954096    -0.00100
C1426       C  0.58377386  0.57408587  0.45989258    -0.00200
C1427       C  0.59894230  0.58015261  0.48754114    -0.13200
C1428       C  0.61679840  0.59927937  0.48553506     0.00300
C1429       C  0.57274196  0.58142941  0.39983749     0.39600
C1430       C  0.63140311  0.60490518  0.51510011     0.36200
C1431       C  0.60750633  0.66615552  0.44198700     0.35900
C1432       C  0.70891676  0.63627736  0.46200512     0.36700
N1433       N  0.56163717  0.57647206  0.37582230    -0.44100
N1434       N  0.64315166  0.60932271  0.53875851    -0.44600
N1435       N  0.72911233  0.62997238  0.46850351    -0.41900
N1436       N  0.58694139  0.67285203  0.43954112    -0.43400
H1437       H  0.64744555  0.69522440  0.43564677     0.12800
H1438       H  0.66933688  0.60664674  0.46276685     0.09300
H1439       H  0.60749466  0.61696390  0.40399546     0.10400
H1440       H  0.59653462  0.57016975  0.51118662     0.16200
C1441       C  0.59384878  0.88324921  0.44781836    -0.02000
C1442       C  0.61973687  0.88820905  0.44951589     0.06600
C1443       C  0.62794077  0.91253795  0.45700953    -0.08000
C1444       C  0.61080219  0.93190254  0.46328300     0.04000
C1445       C  0.58466723  0.92695295  0.46248159    -0.15200
C1446       C  0.57659846  0.90247327  0.45447119    -0.08600
C1447       C  0.63868384  0.86870318  0.44169796     0.04900
C1448       C  0.65173621  0.87051899  0.41133102    -0.09700
C1449       C  0.66983706  0.85268426  0.40258990    -0.00100
C1450       C  0.67563163  0.83262092  0.42500801    -0.00200
C1451       C  0.66235146  0.83092124  0.45556033    -0.13200
C1452       C  0.64397319  0.84869415  0.46393139     0.00300
C1453       C  0.68091995  0.85507940  0.36964146     0.39600
C1454       C  0.63089278  0.84629261  0.49554639     0.36200
C1455       C  0.58463093  0.85876197  0.43834958     0.35900
C1456       C  0.62080057  0.95677854  0.46878666     0.36700
N1457       N  0.68915520  0.85753433  0.34292576    -0.44100
N1458       N  0.62018020  0.84453977  0.52074320    -0.44600
N1459       N  0.62911687  0.97662424  0.47293451    -0.41900
N1460       N  0.57733481  0.83914035  0.43058620    -0.43400
H1461       H  0.55673223  0.89823856  0.45347465     0.12800
H1462       H  0.64789830  0.91646747  0.45750718     0.09300
H1463       H  0.64739851  0.88579379  0.39406616     0.10400
H1464       H  0.66641273  0.81577769  0.47310952     0.16200
C1465       C  0.61812370  0.09099727  0.58034417    -0.02000
C1466       C  0.61347137  0.11641942  0.57184555     0.06600
C1467       C  0.59018762  0.12297008  0.55783844    -0.08000
C1468       C  0.57186917  0.10464280  0.55175713     0.04000
C1469       C  0.57687339  0.07911341  0.55939776    -0.15200
C1470       C  0.59999925  0.07265143  0.57379928    -0.08600
C1471       C  0.63308132  0.13613523  0.57580276     0.04900
C1472       C  0.65611589  0.13322084  0.55911380    -0.09700
C1473       C  0.67528664  0.15102750  0.56252143    -0.00100
C1474       C  0.67149257  0.17235092  0.58276459    -0.00200
C1475       C  0.64817644  0.17579499  0.59847074    -0.13200
C1476       C  0.62907814  0.15784628  0.59535627     0.00300
C1477       C  0.69823967  0.14753814  0.54388190     0.39600
C1478       C  0.60597557  0.16158320  0.61358817     0.36200
C1479       C  0.64120416  0.08321914  0.59621155     0.35900
C1480       C  0.54876360  0.11233025  0.53581803     0.36700
N1481       N  0.71646168  0.14472248  0.52855900    -0.44100
N1482       N  0.58743967  0.16450767  0.62818355    -0.44600
N1483       N  0.53025683  0.11841438  0.52297302    -0.41900
N1484       N  0.65962570  0.07679074  0.60896799    -0.43400
H1485       H  0.60391514  0.05313892  0.58002117     0.12800
H1486       H  0.58657109  0.14238523  0.55080914     0.09300
H1487       H  0.65907288  0.11698566  0.54322883     0.10400
H1488       H  0.64518622  0.19213829  0.61416108     0.16200
C1489       C  0.50497151  0.02242362  0.71868029    -0.02000
C1490       C  0.49043948  0.00455113  0.73636783     0.06600
C1491       C  0.47483320  0.98829245  0.71854007    -0.08000
C1492       C  0.47429122  0.98875859  0.68342462     0.04000
C1493       C  0.48955948  0.00596910  0.66532224    -0.15200
C1494       C  0.50436844  0.02309263  0.68338512    -0.08600
C1495       C  0.49093671  0.00234974  0.77351910     0.04900
C1496       C  0.47236268  0.01457619  0.79214707    -0.09700
C1497       C  0.47152707  0.01226151  0.82718735    -0.00100
C1498       C  0.48958677  0.99740086  0.84425297    -0.00200
C1499       C  0.50764237  0.98445541  0.82538792    -0.13200
C1500       C  0.50851400  0.98692174  0.79029437     0.00300
C1501       C  0.45145762  0.02474236  0.84487642     0.39600
C1502       C  0.52784102  0.97375812  0.77209964     0.36200
C1503       C  0.52072803  0.04002824  0.73627811     0.35900
C1504       C  0.45772025  0.97134109  0.66683282     0.36700
N1505       N  0.43523944  0.03466632  0.85885823    -0.44100
N1506       N  0.54346122  0.96318959  0.75775652    -0.44600
N1507       N  0.44437954  0.95719929  0.65399229    -0.41900
N1508       N  0.53328915  0.05416693  0.75046630    -0.43400
H1509       H  0.51612812  0.03642079  0.66993692     0.12800
H1510       H  0.46329233  0.97487144  0.73219562     0.09300
H1511       H  0.45841186  0.02588598  0.77920697     0.10400
H1512       H  0.52169598  0.97317962  0.83816018     0.16200
C1513       C  0.49687007  0.97707123  0.21773025    -0.02000
C1514       C  0.49917082  0.99922170  0.23666474     0.06600
C1515       C  0.50047452  0.02243936  0.21973833    -0.08000
C1516       C  0.49947579  0.02393896  0.18456164     0.04000
C1517       C  0.49764179  0.00166150  0.16526649    -0.15200
C1518       C  0.49604558  0.97843361  0.18262886    -0.08600
C1519       C  0.49956852  0.99859687  0.27413243     0.04900
C1520       C  0.51818299  0.98467343  0.29101678    -0.09700
C1521       C  0.51880815  0.98346075  0.32623575    -0.00100
C1522       C  0.50087676  0.99677059  0.34518661    -0.00200
C1523       C  0.48239153  0.01079939  0.32831766    -0.13200
C1524       C  0.48145776  0.01161443  0.29318129     0.00300
C1525       C  0.53861162  0.96935454  0.34235653     0.39600
C1526       C  0.46149586  0.02560301  0.27718891     0.36200
C1527       C  0.49514252  0.95268015  0.23380391     0.35900
C1528       C  0.50047676  0.04870997  0.16962123     0.36700
N1529       N  0.55443987  0.95806160  0.35539926    -0.44100
N1530       N  0.44565657  0.03683186  0.26407344    -0.44600
N1531       N  0.50122856  0.06886176  0.15849846    -0.41900
N1532       N  0.49399728  0.93322284  0.24694189    -0.43400
H1533       H  0.49429168  0.96100650  0.16883274     0.12800
H1534       H  0.50229374  0.03957171  0.23419543     0.09300
H1535       H  0.53236699  0.97485783  0.27661853     0.10400
H1536       H  0.46855370  0.02112213  0.34270463     0.16200
C1537       C  0.65964781  0.86853158  0.95757135    -0.02000
C1538       C  0.63463798  0.86448333  0.94726630     0.06600
C1539       C  0.62849401  0.84161630  0.93177819    -0.08000
C1540       C  0.64678876  0.82311373  0.92617550     0.04000
C1541       C  0.67186915  0.82734049  0.93608083    -0.15200
C1542       C  0.67797084  0.85014827  0.95169316    -0.08600
C1543       C  0.61494100  0.88425964  0.95108202     0.04900
C1544       C  0.61821839  0.90765096  0.93498991    -0.09700
C1545       C  0.60027860  0.92680628  0.93803421    -0.00100
C1546       C  0.57830694  0.92262247  0.95705226    -0.00200
C1547       C  0.57475614  0.89910664  0.97263757    -0.13200
C1548       C  0.59288477  0.88005278  0.96999365     0.00300
C1549       C  0.60453609  0.95039796  0.92075691     0.39600
C1550       C  0.58886336  0.85666601  0.98784717     0.36200
C1551       C  0.66691571  0.89121404  0.97476859     0.35900
C1552       C  0.63969298  0.80068037  0.90827320     0.36700
N1553       N  0.60792405  0.96926719  0.90680340    -0.44100
N1554       N  0.58568879  0.83789329  0.00212121    -0.44600
N1555       N  0.63415699  0.78272158  0.89377914    -0.41900
N1556       N  0.67280540  0.90933772  0.98864151    -0.43400
H1557       H  0.69715782  0.85360180  0.95940237     0.12800
H1558       H  0.60944577  0.83847721  0.92327329     0.09300
H1559       H  0.63488651  0.91094373  0.91996384     0.10400
H1560       H  0.55810979  0.89587423  0.98773903     0.16200
C1561       C  0.66230182  0.12270511  0.07139018    -0.02000
C1562       C  0.63656498  0.12860097  0.07315180     0.06600
C1563       C  0.62920847  0.15294633  0.08216459    -0.08000
C1564       C  0.64704262  0.17161329  0.08861590     0.04000
C1565       C  0.67289220  0.16601591  0.08588672    -0.15200
C1566       C  0.68018498  0.14138080  0.07758455    -0.08600
C1567       C  0.61694329  0.10962803  0.06598965     0.04900
C1568       C  0.60076590  0.10197209  0.09193086    -0.09700
C1569       C  0.58218848  0.08383894  0.08629427    -0.00100
C1570       C  0.57939122  0.07336688  0.05402650    -0.00200
C1571       C  0.59551371  0.08124719  0.02807217    -0.13200
C1572       C  0.61412440  0.09922119  0.03374032     0.00300
C1573       C  0.56753283  0.07511825  0.11451240     0.39600
C1574       C  0.62992425  0.10684874  0.00599498     0.36200
C1575       C  0.67069917  0.09747988  0.06406616     0.35900
C1576       C  0.63820216  0.19589568  0.09955428     0.36700
N1577       N  0.55618251  0.06800140  0.13745010    -0.44100
N1578       N  0.64271023  0.11280220  0.98382422    -0.44600
N1579       N  0.63095656  0.21525399  0.10849571    -0.41900
N1580       N  0.67717784  0.07720634  0.05812481    -0.43400
H1581       H  0.69993408  0.13667696  0.07593475     0.12800
H1582       H  0.60940758  0.15736177  0.08414964     0.09300
H1583       H  0.60306837  0.10978591  0.11683938     0.10400
H1584       H  0.59346111  0.07341579  0.00312863     0.16200
C1585       C  0.11997041  0.58622867  0.82191456    -0.02000
C1586       C  0.11634656  0.61148038  0.81153442     0.06600
C1587       C  0.09353098  0.61812582  0.79625268    -0.08000
C1588       C  0.07463128  0.60023834  0.79108819     0.04000
C1589       C  0.07860307  0.57485993  0.80046865    -0.15200
C1590       C  0.10132224  0.56819193  0.81592133    -0.08600
C1591       C  0.13624206  0.63109132  0.81530281     0.04900
C1592       C  0.16002323  0.62701428  0.80111773    -0.09700
C1593       C  0.17917557  0.64492952  0.80414660    -0.00100
C1594       C  0.17441520  0.66801919  0.82028006    -0.00200
C1595       C  0.15050708  0.67241114  0.83380746    -0.13200
C1596       C  0.13166152  0.65400906  0.83208055     0.00300
C1597       C  0.20363479  0.63909788  0.79071751     0.39600
C1598       C  0.10831465  0.65836854  0.84949451     0.36200
C1599       C  0.14241347  0.57834255  0.83927956     0.35900
C1600       C  0.05176650  0.60828610  0.77487515     0.36700
N1601       N  0.22328623  0.63429689  0.78021415    -0.44100
N1602       N  0.08962482  0.66158659  0.86361883    -0.44600
N1603       N  0.03341190  0.61480523  0.76202049    -0.41900
N1604       N  0.16031275  0.57180578  0.85323118    -0.43400
H1605       H  0.10447261  0.54879460  0.82345968     0.12800
H1606       H  0.09060175  0.63735676  0.78785103     0.09300
H1607       H  0.16373332  0.60962419  0.78791350     0.10400
H1608       H  0.14694335  0.68974519  0.84723182     0.16200
C1609       C  0.36836567  0.65935678  0.93103627    -0.02000
C1610       C  0.36257006  0.63416424  0.93901554     0.06600
C1611       C  0.33747041  0.62657694  0.94066654    -0.08000
C1612       C  0.31809159  0.64348023  0.93363601     0.04000
C1613       C  0.32375778  0.66857482  0.92431977    -0.15200
C1614       C  0.34900217  0.67632633  0.92369122    -0.08600
C1615       C  0.38220840  0.61537279  0.94683415     0.04900
C1616       C  0.38346420  0.60560411  0.97953013    -0.09700
C1617       C  0.40069450  0.58677014  0.98784906    -0.00100
C1618       C  0.41692609  0.57712028  0.96295050    -0.00200
C1619       C  0.41597952  0.58737322  0.93031558    -0.13200
C1620       C  0.39873143  0.60628984  0.92206589     0.00300
C1621       C  0.40195137  0.57859170  0.02245194     0.39600
C1622       C  0.39788344  0.61568179  0.88794886     0.36200
C1623       C  0.39399677  0.66812307  0.93064521     0.35900
C1624       C  0.29267296  0.63472629  0.93795383     0.36700
N1625       N  0.40288892  0.57232039  0.05030869    -0.44100
N1626       N  0.39719282  0.62337521  0.86070014    -0.44600
N1627       N  0.27247384  0.62735287  0.94195383    -0.41900
N1628       N  0.41463422  0.67484339  0.93033262    -0.43400
H1629       H  0.35366504  0.69556753  0.91692176     0.12800
H1630       H  0.33301998  0.60731634  0.94765025     0.09300
H1631       H  0.37091062  0.61280423  0.99865604     0.10400
H1632       H  0.42846263  0.58030365  0.91107610     0.16200
C1633       C  0.36408776  0.84174727  0.94147064    -0.02000
C1634       C  0.35916648  0.86771057  0.93869115     0.06600
C1635       C  0.33482214  0.87578145  0.93113310    -0.08000
C1636       C  0.31553608  0.85846869  0.92539871     0.04000
C1637       C  0.32055854  0.83223929  0.92666216    -0.15200
C1638       C  0.34491618  0.82430142  0.93536650    -0.08600
C1639       C  0.37881241  0.88694959  0.94470630     0.04900
C1640       C  0.39718862  0.89152144  0.92011950    -0.09700
C1641       C  0.41510505  0.91061608  0.92432943    -0.00100
C1642       C  0.41500670  0.92519622  0.95387026    -0.00200
C1643       C  0.39650339  0.92048096  0.97836714    -0.13200
C1644       C  0.37846577  0.90170887  0.97391662     0.00300
C1645       C  0.43229125  0.91591976  0.89716717     0.39600
C1646       C  0.35970235  0.89786656  0.99963140     0.36200
C1647       C  0.38850215  0.83258818  0.95125411     0.35900
C1648       C  0.29078629  0.86840312  0.91896114     0.36700
N1649       N  0.44588490  0.92047076  0.87528346    -0.44100
N1650       N  0.34452777  0.89475797  0.02003682    -0.44600
N1651       N  0.27101141  0.87653126  0.91388116    -0.41900
N1652       N  0.40797194  0.82513151  0.95937522    -0.43400
H1653       H  0.34921976  0.80438545  0.93676390     0.12800
H1654       H  0.33088181  0.89579303  0.92977856     0.09300
H1655       H  0.39711105  0.88056661  0.89723897     0.10400
H1656       H  0.39618360  0.93140420  0.00128062     0.16200
C1657       C  0.23569327  0.73501071  0.58011532    -0.02000
C1658       C  0.25508541  0.74536377  0.59951203     0.06600
C1659       C  0.27601656  0.75590676  0.58332573    -0.08000
C1660       C  0.27750164  0.75692943  0.54810827     0.04000
C1661       C  0.25779983  0.74690059  0.52844662    -0.15200
C1662       C  0.23717324  0.73582719  0.54508114    -0.08600
C1663       C  0.25391629  0.74508703  0.63674229     0.04900
C1664       C  0.27004748  0.72905727  0.65448256    -0.09700
C1665       C  0.26945764  0.72794128  0.68960190    -0.00100
C1666       C  0.25263025  0.74339868  0.70765987    -0.00200
C1667       C  0.23608324  0.75905459  0.68974518    -0.13200
C1668       C  0.23664936  0.76005058  0.65457638     0.00300
C1669       C  0.28558193  0.70992379  0.70614036     0.39600
C1670       C  0.21972805  0.77692526  0.63731473     0.36200
C1671       C  0.21417316  0.72323065  0.59567433     0.35900
C1672       C  0.29883165  0.76944730  0.53317324     0.36700
N1673       N  0.29850649  0.69515205  0.71873562    -0.44100
N1674       N  0.20613066  0.79037695  0.62341104    -0.44600
N1675       N  0.31593853  0.77964808  0.52146436    -0.41900
N1676       N  0.19692829  0.71387996  0.60824210    -0.43400
H1677       H  0.22199901  0.72768071  0.53067170     0.12800
H1678       H  0.29099787  0.76384167  0.59831041     0.09300
H1679       H  0.28295594  0.71715043  0.64075332     0.10400
H1680       H  0.22311794  0.77103053  0.70326107     0.16200
C1681       C  0.22945425  0.73599170  0.15585421    -0.02000
C1682       C  0.24851619  0.74700304  0.13608647     0.06600
C1683       C  0.26802255  0.75994283  0.15179014    -0.08000
C1684       C  0.26907387  0.76185946  0.18672420     0.04000
C1685       C  0.25029654  0.75040550  0.20695870    -0.15200
C1686       C  0.23047041  0.73772119  0.19099424    -0.08600
C1687       C  0.24787028  0.74665300  0.09885945     0.04900
C1688       C  0.22838466  0.75922667  0.08234697    -0.09700
C1689       C  0.22768151  0.76081375  0.04731256    -0.00100
C1690       C  0.24704802  0.74972149  0.02791821    -0.00200
C1691       C  0.26665302  0.73717760  0.04470233    -0.13200
C1692       C  0.26709869  0.73544041  0.07981394     0.00300
C1693       C  0.20723306  0.77484083  0.03261853     0.39600
C1694       C  0.28701115  0.72141310  0.09580115     0.36200
C1695       C  0.20896598  0.72255010  0.14048858     0.35900
C1696       C  0.28927171  0.77654348  0.20065116     0.36700
N1697       N  0.19056273  0.78627388  0.02192225    -0.44100
N1698       N  0.30283071  0.71007373  0.10878125    -0.44600
N1699       N  0.30557334  0.78839876  0.21134107    -0.41900
N1700       N  0.19262217  0.71193580  0.12777092    -0.43400
H1701       H  0.21594656  0.72878362  0.20595592     0.12800
H1702       H  0.28232444  0.76900166  0.13653283     0.09300
H1703       H  0.21383098  0.76825717  0.09703515     0.10400
H1704       H  0.28142785  0.72820838  0.03037273     0.16200
C1705       C  0.13464515  0.66020853  0.31409141    -0.02000
C1706       C  0.13895991  0.63416270  0.31141534     0.06600
C1707       C  0.16357371  0.62503470  0.31388481    -0.08000
C1708       C  0.18378348  0.64136684  0.31942703     0.04000
C1709       C  0.17950424  0.66763139  0.32212725    -0.15200
C1710       C  0.15475922  0.67661020  0.31936372    -0.08600
C1711       C  0.11832395  0.61618682  0.30421837     0.04900
C1712       C  0.11812329  0.60419362  0.27304481    -0.09700
C1713       C  0.09957429  0.58661744  0.26510621    -0.00100
C1714       C  0.08098245  0.58008644  0.28908073    -0.00200
C1715       C  0.08071150  0.59281705  0.31997232    -0.13200
C1716       C  0.09915259  0.61076209  0.32764463     0.00300
C1717       C  0.09944749  0.57669542  0.23145142     0.39600
C1718       C  0.09843408  0.62291726  0.35995580     0.36200
C1719       C  0.10978373  0.67061813  0.31074013     0.35900
C1720       C  0.20857819  0.63051668  0.32160297     0.36700
N1721       N  0.09940714  0.56917658  0.20425104    -0.44100
N1722       N  0.09787369  0.63284280  0.38572993    -0.44600
N1723       N  0.22837260  0.62169438  0.32349055    -0.41900
N1724       N  0.08981781  0.67891023  0.30815800    -0.43400
H1725       H  0.15097355  0.69657657  0.32158476     0.12800
H1726       H  0.16697525  0.60499956  0.31148036     0.09300
H1727       H  0.13243811  0.60883147  0.25463142     0.10400
H1728       H  0.06647841  0.58828580  0.33851837     0.16200
C1729       C  0.36020128  0.65119469  0.45477135    -0.02000
C1730       C  0.36986081  0.63596159  0.42890801     0.06600
C1731       C  0.36135945  0.63931467  0.39594801    -0.08000
C1732       C  0.34307686  0.65726718  0.38849555     0.04000
C1733       C  0.33260619  0.67184549  0.41452123    -0.15200
C1734       C  0.34165727  0.66903144  0.44738817    -0.08600
C1735       C  0.38822713  0.61577703  0.43560309     0.04900
C1736       C  0.38043632  0.59076492  0.43234421    -0.09700
C1737       C  0.39704034  0.57092571  0.43835126    -0.00100
C1738       C  0.42202078  0.57608695  0.44807989    -0.00200
C1739       C  0.42996345  0.60126828  0.45019026    -0.13200
C1740       C  0.41331047  0.62106504  0.44386468     0.00300
C1741       C  0.38802782  0.54562114  0.43316846     0.39600
C1742       C  0.42239812  0.64662178  0.44522314     0.36200
C1743       C  0.36859370  0.64849641  0.48906906     0.35900
C1744       C  0.33625790  0.66118924  0.35374615     0.36700
N1745       N  0.38055498  0.52547508  0.42873655    -0.44100
N1746       N  0.42956593  0.66715571  0.44610717    -0.44600
N1747       N  0.33104091  0.66451507  0.32586330    -0.41900
N1748       N  0.37534074  0.64655147  0.51657964    -0.43400
H1749       H  0.33381837  0.68034929  0.46739132     0.12800
H1750       H  0.36915346  0.62791777  0.37598072     0.09300
H1751       H  0.36124842  0.58676678  0.42509329     0.10400
H1752       H  0.44911748  0.60553732  0.45727693     0.16200
C1753       C  0.36831791  0.84525505  0.43308675    -0.02000
C1754       C  0.36260701  0.87117812  0.43374554     0.06600
C1755       C  0.33756535  0.87870971  0.42959157    -0.08000
C1756       C  0.31838525  0.86105494  0.42477277     0.04000
C1757       C  0.32409030  0.83501620  0.42354849    -0.15200
C1758       C  0.34919391  0.82753314  0.42811797    -0.08600
C1759       C  0.38233330  0.89071795  0.43916321     0.04900
C1760       C  0.40277470  0.89254706  0.41688071    -0.09700
C1761       C  0.42163078  0.91073505  0.42130668    -0.00100
C1762       C  0.42011908  0.92773504  0.44836941    -0.00200
C1763       C  0.39946962  0.92595007  0.47035011    -0.13200
C1764       C  0.38079687  0.90779547  0.46605736     0.00300
C1765       C  0.44157371  0.91217432  0.39687313     0.39600
C1766       C  0.36054468  0.90679229  0.49016408     0.36200
C1767       C  0.39364004  0.83633227  0.43783810     0.35900
C1768       C  0.29305481  0.87039426  0.42175170     0.36700
N1769       N  0.45736822  0.91325282  0.37696821    -0.44100
N1770       N  0.34427999  0.90613009  0.50941434    -0.44600
N1771       N  0.27283954  0.87811354  0.41939761    -0.41900
N1772       N  0.41397083  0.82924815  0.44154570    -0.43400
H1773       H  0.35408469  0.80775307  0.42705118     0.12800
H1774       H  0.33297598  0.89859040  0.42997243     0.09300
H1775       H  0.40387266  0.87984222  0.39573077     0.10400
H1776       H  0.39804183  0.93857907  0.49154624     0.16200
C1777       C  0.11410402  0.39717785  0.72478376    -0.02000
C1778       C  0.11469569  0.38414019  0.69411575     0.06600
C1779       C  0.09737679  0.39039456  0.66889795    -0.08000
C1780       C  0.07949696  0.40933506  0.67392745     0.04000
C1781       C  0.07859692  0.42212367  0.70495593    -0.15200
C1782       C  0.09610996  0.41585564  0.73001527    -0.08600
C1783       C  0.13380469  0.36446526  0.68771308     0.04900
C1784       C  0.13348242  0.34226494  0.70693704    -0.09700
C1785       C  0.15191894  0.32371543  0.70279102    -0.00100
C1786       C  0.17132383  0.32730309  0.67885496    -0.00200
C1787       C  0.17128387  0.34966311  0.65952048    -0.13200
C1788       C  0.15284409  0.36805735  0.66370682     0.00300
C1789       C  0.15047876  0.30175495  0.72419062     0.39600
C1790       C  0.15427860  0.39079634  0.64370608     0.36200
C1791       C  0.13238683  0.39235286  0.75076466     0.35900
C1792       C  0.06334602  0.41614903  0.64622492     0.36700
N1793       N  0.14875092  0.28442020  0.74178445    -0.44100
N1794       N  0.15544628  0.40901475  0.62769543    -0.44600
N1795       N  0.05056895  0.42169446  0.62389190    -0.41900
N1796       N  0.14713609  0.38854407  0.77147501    -0.43400
H1797       H  0.09581613  0.42564812  0.75383253     0.12800
H1798       H  0.09807955  0.38064959  0.64506497     0.09300
H1799       H  0.11881991  0.33954971  0.72552185     0.10400
H1800       H  0.18567401  0.35287235  0.64071713     0.16200
C1801       C  0.40002961  0.39069521  0.58178396    -0.02000
C1802       C  0.38307868  0.38328440  0.55649383     0.06600
C1803       C  0.38492495  0.39432689  0.52451459    -0.08000
C1804       C  0.40269991  0.41311844  0.51780438     0.04000
C1805       C  0.41894601  0.42142083  0.54359068    -0.15200
C1806       C  0.41780251  0.40950460  0.57514998    -0.08600
C1807       C  0.36232725  0.36531201  0.56363907     0.04900
C1808       C  0.34428333  0.37189736  0.58760994    -0.09700
C1809       C  0.32447510  0.35568913  0.59578668    -0.00100
C1810       C  0.32243939  0.33194945  0.57981831    -0.00200
C1811       C  0.34036235  0.32576430  0.55513089    -0.13200
C1812       C  0.36001434  0.34217098  0.54686411     0.00300
C1813       C  0.30684861  0.36431757  0.62071844     0.39600
C1814       C  0.37783685  0.33452137  0.52160178     0.36200
C1815       C  0.39939815  0.37938819  0.61484779     0.35900
C1816       C  0.40425037  0.42294506  0.48396731     0.36700
N1817       N  0.29286643  0.37174586  0.64055909    -0.44100
N1818       N  0.39198094  0.32827428  0.50123540    -0.44600
N1819       N  0.40545228  0.43054930  0.45671181    -0.41900
N1820       N  0.39882754  0.37038331  0.64138093    -0.43400
H1821       H  0.43034407  0.41539832  0.59502956     0.12800
H1822       H  0.37209597  0.38857447  0.50488651     0.09300
H1823       H  0.34570491  0.38995190  0.60003487     0.10400
H1824       H  0.33918105  0.30795015  0.54213011     0.16200
C1825       C  0.38228845  0.10175978  0.52006642    -0.02000
C1826       C  0.37945881  0.11546685  0.54996721     0.06600
C1827       C  0.39516814  0.11002826  0.57736889    -0.08000
C1828       C  0.41328681  0.09092007  0.57544862     0.04000
C1829       C  0.41550425  0.07656288  0.54583448    -0.15200
C1830       C  0.39994385  0.08237215  0.51835542    -0.08600
C1831       C  0.35930820  0.13457319  0.55353993     0.04900
C1832       C  0.33425765  0.12666126  0.55209410    -0.09700
C1833       C  0.31453696  0.14371673  0.55643128    -0.00100
C1834       C  0.31972454  0.16942144  0.56240668    -0.00200
C1835       C  0.34492022  0.17742515  0.56258044    -0.13200
C1836       C  0.36462093  0.16024932  0.55841121     0.00300
C1837       C  0.28922719  0.13421230  0.55449811     0.39600
C1838       C  0.39013520  0.16931940  0.55914031     0.36200
C1839       C  0.36775007  0.10777571  0.49050318     0.35900
C1840       C  0.42866328  0.08594282  0.60455309     0.36700
N1841       N  0.26896019  0.12653726  0.55301138    -0.44100
N1842       N  0.41063991  0.17642179  0.55969685    -0.44600
N1843       N  0.44091135  0.08209083  0.62800492    -0.41900
N1844       N  0.35617456  0.11274620  0.46680575    -0.43400
H1845       H  0.40193702  0.07205916  0.49508867     0.12800
H1846       H  0.39299429  0.12050953  0.60047080     0.09300
H1847       H  0.33011660  0.10692914  0.54803383     0.10400
H1848       H  0.34934720  0.19701120  0.56721005     0.16200
C1849       C  0.22763199  0.25187287  0.83911882    -0.02000
C1850       C  0.24545608  0.23718370  0.85653199     0.06600
C1851       C  0.26056678  0.22047982  0.83851412    -0.08000
C1852       C  0.25924442  0.21933774  0.80340613     0.04000
C1853       C  0.24265269  0.23539471  0.78554679    -0.15200
C1854       C  0.22642437  0.25099863  0.80391087    -0.08600
C1855       C  0.24811029  0.23833991  0.89365172     0.04900
C1856       C  0.23873049  0.21842692  0.91314568    -0.09700
C1857       C  0.24006042  0.21902430  0.94825436    -0.00100
C1858       C  0.25122476  0.23975534  0.96451026    -0.00200
C1859       C  0.26150788  0.25925973  0.94493830    -0.13200
C1860       C  0.25991141  0.25877226  0.90973940     0.00300
C1861       C  0.23030762  0.19782592  0.96697290     0.39600
C1862       C  0.27044716  0.27943323  0.89070030     0.36200
C1863       C  0.21013638  0.26758707  0.85700888     0.35900
C1864       C  0.27473036  0.20102912  0.78659026     0.36700
N1865       N  0.22257200  0.18067534  0.98173273    -0.44100
N1866       N  0.27895356  0.29606989  0.87564189    -0.44600
N1867       N  0.28712926  0.18612359  0.77355849    -0.41900
N1868       N  0.19597281  0.27994106  0.87150245    -0.43400
H1869       H  0.21327757  0.26308955  0.79073766     0.12800
H1870       H  0.27363106  0.20845219  0.85196115     0.09300
H1871       H  0.23002527  0.20250963  0.90085757     0.10400
H1872       H  0.27009113  0.27525796  0.95718989     0.16200
C1873       C  0.26534947  0.27033633  0.33654255    -0.02000
C1874       C  0.25179310  0.25240953  0.35549083     0.06600
C1875       C  0.23661592  0.23495704  0.33861304    -0.08000
C1876       C  0.23490948  0.23509328  0.30341786     0.04000
C1877       C  0.24824480  0.25323739  0.28449752    -0.15200
C1878       C  0.26353072  0.27056437  0.30144343    -0.08600
C1879       C  0.25170557  0.25263114  0.39290618     0.04900
C1880       C  0.22934850  0.25876905  0.40928770    -0.09700
C1881       C  0.22785195  0.25929524  0.44437472    -0.00100
C1882       C  0.24935679  0.25372252  0.46426927    -0.00200
C1883       C  0.27181768  0.24757139  0.44755771    -0.13200
C1884       C  0.27308609  0.24680957  0.41231713     0.00300
C1885       C  0.20376989  0.26559726  0.45869683     0.39600
C1886       C  0.29633910  0.23932639  0.39673111     0.36200
C1887       C  0.28092778  0.28895573  0.35252033     0.35900
C1888       C  0.22057067  0.21558950  0.28725941     0.36700
N1889       N  0.18434918  0.27045160  0.46991998    -0.44100
N1890       N  0.31504521  0.23332629  0.38440277    -0.44600
N1891       N  0.20934002  0.19982924  0.27416786    -0.41900
N1892       N  0.29355978  0.30379665  0.36524856    -0.43400
H1893       H  0.27406614  0.28444124  0.28715394     0.12800
H1894       H  0.22621057  0.22106434  0.35303244     0.09300
H1895       H  0.21286168  0.26320991  0.39443284     0.10400
H1896       H  0.28841277  0.24289527  0.46200770     0.16200
C1897       C  0.08673872  0.38079350  0.18871031    -0.02000
C1898       C  0.11253268  0.38562956  0.18460816     0.06600
C1899       C  0.12121527  0.41042552  0.18626922    -0.08000
C1900       C  0.10479053  0.43041180  0.19230119     0.04000
C1901       C  0.07877147  0.42576974  0.19663793    -0.15200
C1902       C  0.07013376  0.40076774  0.19460491    -0.08600
C1903       C  0.13099253  0.36542896  0.17760593     0.04900
C1904       C  0.14259444  0.36502329  0.14605686    -0.09700
C1905       C  0.16165380  0.34776119  0.13898274    -0.00100
C1906       C  0.16957138  0.33040507  0.16397871    -0.00200
C1907       C  0.15746646  0.33048038  0.19537171    -0.13200
C1908       C  0.13847159  0.34793466  0.20240819     0.00300
C1909       C  0.17204607  0.34796296  0.10547737     0.39600
C1910       C  0.12767827  0.34830822  0.23564971     0.36200
C1911       C  0.07685962  0.35558289  0.18638460     0.35900
C1912       C  0.11544845  0.45537422  0.19298161     0.36700
N1913       N  0.17995369  0.34843176  0.07840580    -0.44100
N1914       N  0.11901100  0.34869598  0.26229651    -0.44600
N1915       N  0.12450129  0.47515463  0.19344184    -0.41900
N1916       N  0.06892201  0.33537512  0.18455722    -0.43400
H1917       H  0.05036329  0.39671291  0.19796850     0.12800
H1918       H  0.14105851  0.41416649  0.18283272     0.09300
H1919       H  0.13680118  0.37843637  0.12691736     0.10400
H1920       H  0.16334979  0.31735846  0.21479826     0.16200
C1921       C  0.36863819  0.34115071  0.08636365    -0.02000
C1922       C  0.36429213  0.36477201  0.07095217     0.06600
C1923       C  0.34047116  0.36992156  0.05756049    -0.08000
C1924       C  0.32096468  0.35240678  0.06020639     0.04000
C1925       C  0.32527135  0.32887080  0.07576090    -0.15200
C1926       C  0.34927117  0.32333438  0.08824992    -0.08600
C1927       C  0.38425346  0.38433671  0.06806640     0.04900
C1928       C  0.40659407  0.37868434  0.05101500    -0.09700
C1929       C  0.42506577  0.39709106  0.04581809    -0.00100
C1930       C  0.42112022  0.42191002  0.05723812    -0.00200
C1931       C  0.39892463  0.42747451  0.07466755    -0.13200
C1932       C  0.38074816  0.40890382  0.08056890     0.00300
C1933       C  0.44720038  0.39030267  0.02704744     0.39600
C1934       C  0.35888231  0.41532421  0.10014605     0.36200
C1935       C  0.39237179  0.33528816  0.10194594     0.35900
C1936       C  0.29684796  0.35889317  0.04616421     0.36700
N1937       N  0.46486130  0.38468722  0.01194505    -0.44100
N1938       N  0.34135199  0.42029862  0.11591468    -0.44600
N1939       N  0.27759488  0.36423713  0.03481009    -0.41900
N1940       N  0.41138507  0.33069900  0.11454566    -0.43400
H1941       H  0.35260557  0.30545317  0.10077137     0.12800
H1942       H  0.33707755  0.38780230  0.04508322     0.09300
H1943       H  0.40934712  0.35995944  0.04098954     0.10400
H1944       H  0.39585672  0.44638570  0.08389606     0.16200
C1945       C  0.36543869  0.15562947  0.06803712    -0.02000
C1946       C  0.35964049  0.12977371  0.06788805     0.06600
C1947       C  0.33460405  0.12214266  0.07095832    -0.08000
C1948       C  0.31536128  0.13975121  0.07458977     0.04000
C1949       C  0.32108287  0.16578923  0.07524304    -0.15200
C1950       C  0.34620638  0.17336773  0.07146283    -0.08600
C1951       C  0.37912982  0.11020414  0.06334619     0.04900
C1952       C  0.39728248  0.10625842  0.08835386    -0.09700
C1953       C  0.41532145  0.08718579  0.08510955    -0.00100
C1954       C  0.41512708  0.07155740  0.05654885    -0.00200
C1955       C  0.39675046  0.07558877  0.03173579    -0.13200
C1956       C  0.37904915  0.09477290  0.03476727     0.00300
C1957       C  0.43313802  0.08352929  0.11191326     0.39600
C1958       C  0.36151977  0.09893730  0.00764097     0.36200
C1959       C  0.39092383  0.16440757  0.06459321     0.35900
C1960       C  0.29001439  0.13035115  0.07726403     0.36700
N1961       N  0.44731482  0.08060918  0.13355603    -0.44100
N1962       N  0.34748966  0.10251090  0.98597730    -0.44600
N1963       N  0.26979706  0.12261535  0.07953639    -0.41900
N1964       N  0.41134176  0.17151279  0.06195220    -0.43400
H1965       H  0.35099146  0.19318785  0.07220591     0.12800
H1966       H  0.33011010  0.10223347  0.07058200     0.09300
H1967       H  0.39717106  0.11794652  0.11057921     0.10400
H1968       H  0.39663260  0.06417414  0.00924973     0.16200
C1969       C  0.86191167  0.15614453  0.70382974    -0.02000
C1970       C  0.86721855  0.13764746  0.67960622     0.06600
C1971       C  0.85407910  0.13789324  0.64920375    -0.08000
C1972       C  0.83538546  0.15580608  0.64294411     0.04000
C1973       C  0.82889706  0.17349125  0.66796445    -0.15200
C1974       C  0.84287754  0.17386404  0.69788488    -0.08600
C1975       C  0.88524987  0.11689818  0.68612884     0.04900
C1976       C  0.87574884  0.09302276  0.69405564    -0.09700
C1977       C  0.89180660  0.07272848  0.70065655    -0.00100
C1978       C  0.91817645  0.07603400  0.69882245    -0.00200
C1979       C  0.92756301  0.10001868  0.69022112    -0.13200
C1980       C  0.91138792  0.12035281  0.68403936     0.00300
C1981       C  0.88048057  0.04878622  0.70889422     0.39600
C1982       C  0.92201207  0.14449158  0.67522644     0.36200
C1983       C  0.87503980  0.15662697  0.73548721     0.35900
C1984       C  0.82430714  0.15638992  0.60988865     0.36700
N1985       N  0.87133212  0.02968534  0.71576221    -0.44100
N1986       N  0.93062973  0.16379375  0.66813401    -0.44600
N1987       N  0.81601590  0.15683805  0.58305113    -0.41900
N1988       N  0.88552856  0.15701739  0.76090326    -0.43400
H1989       H  0.83839331  0.18748214  0.71714625     0.12800
H1990       H  0.85853173  0.12402304  0.63023566     0.09300
H1991       H  0.85560873  0.09031183  0.69542069     0.10400
H1992       H  0.94763920  0.10305067  0.68876688     0.16200
C1993       C  0.85744163  0.84962822  0.80588942    -0.02000
C1994       C  0.86343492  0.86853689  0.82918983     0.06600
C1995       C  0.85075211  0.86937189  0.85989266    -0.08000
C1996       C  0.83219588  0.85172965  0.86781097     0.04000
C1997       C  0.82558669  0.83298327  0.84422606    -0.15200
C1998       C  0.83859486  0.83213843  0.81348123    -0.08600
C1999       C  0.88232381  0.88819225  0.82185564     0.04900
C2000       C  0.87406431  0.91275973  0.81561306    -0.09700
C2001       C  0.89108629  0.93202656  0.80817465    -0.00100
C2002       C  0.91713326  0.92665675  0.80634730    -0.00200
C2003       C  0.92530948  0.90210248  0.81420492    -0.13200
C2004       C  0.90818303  0.88303405  0.82221992     0.00300
C2005       C  0.88102579  0.95703636  0.80341099     0.39600
C2006       C  0.91753771  0.85850817  0.83165458     0.36200
C2007       C  0.87015679  0.84791386  0.77395422     0.35900
C2008       C  0.82137580  0.85284904  0.90100034     0.36700
N2009       N  0.87255975  0.97692558  0.79983126    -0.44100
N2010       N  0.92502523  0.83891519  0.83956523    -0.44600
N2011       N  0.81326168  0.85412095  0.92789658    -0.41900
N2012       N  0.88033610  0.84626413  0.74837905    -0.43400
H2013       H  0.83390147  0.81789947  0.79513977     0.12800
H2014       H  0.85563010  0.88377044  0.87794629     0.09300
H2015       H  0.85414279  0.91685447  0.81647459     0.10400
H2016       H  0.94512369  0.89757705  0.81364400     0.16200
C2017       C  0.13498305  0.84075132  0.79762249    -0.02000
C2018       C  0.13900444  0.86646356  0.80377594     0.06600
C2019       C  0.16300399  0.87481009  0.81229643    -0.08000
C2020       C  0.18295411  0.85787872  0.81556432     0.04000
C2021       C  0.17897269  0.83170141  0.81053003    -0.15200
C2022       C  0.15483694  0.82362110  0.80102395    -0.08600
C2023       C  0.11885167  0.88533963  0.79930014     0.04900
C2024       C  0.10193430  0.89002607  0.82557784    -0.09700
C2025       C  0.08325767  0.90854012  0.82223865    -0.00100
C2026       C  0.08146686  0.92264931  0.79210053    -0.00200
C2027       C  0.09848314  0.91763940  0.76591593    -0.13200
C2028       C  0.11699581  0.89926088  0.76928542     0.00300
C2029       C  0.06704630  0.91337764  0.85051460     0.39600
C2030       C  0.13385767  0.89490433  0.74150643     0.36200
C2031       C  0.11058071  0.83163340  0.78787448     0.35900
C2032       C  0.20723604  0.86821264  0.82374488     0.36700
N2033       N  0.05418303  0.91727116  0.87332557    -0.44100
N2034       N  0.14734800  0.89141775  0.71923508    -0.44600
N2035       N  0.22669384  0.87644242  0.83034235    -0.41900
N2036       N  0.09096036  0.82447640  0.78006461    -0.43400
H2037       H  0.15118837  0.80379202  0.79710499     0.12800
H2038       H  0.16615953  0.89474416  0.81624025     0.09300
H2039       H  0.10353862  0.87939873  0.84882495     0.10400
H2040       H  0.09720478  0.92798758  0.74240064     0.16200
C2041       C  0.08994594  0.11271775  0.68328030    -0.02000
C2042       C  0.11549028  0.10676807  0.67878537     0.06600
C2043       C  0.12257885  0.08146894  0.67555703    -0.08000
C2044       C  0.10481161  0.06216729  0.67700854     0.04000
C2045       C  0.07930045  0.06796405  0.68255743    -0.15200
C2046       C  0.07210602  0.09337955  0.68488297    -0.08600
C2047       C  0.13514056  0.12648012  0.67555113     0.04900
C2048       C  0.14024851  0.14264212  0.70251856    -0.09700
C2049       C  0.15943624  0.16072047  0.70026318    -0.00100
C2050       C  0.17392895  0.16265665  0.67059638    -0.00200
C2051       C  0.16876278  0.14627960  0.64387726    -0.13200
C2052       C  0.14958417  0.12850490  0.64602693     0.00300
C2053       C  0.16449581  0.17620528  0.72912893     0.39600
C2054       C  0.14461108  0.11293312  0.61717871     0.36200
C2055       C  0.08164257  0.13842946  0.68678931     0.35900
C2056       C  0.11326299  0.03666183  0.67192763     0.36700
N2057       N  0.16857847  0.18848104  0.75239471    -0.44100
N2058       N  0.14051138  0.10033423  0.59423852    -0.44600
N2059       N  0.12008793  0.01626496  0.66764371    -0.41900
N2060       N  0.07501008  0.15901701  0.68991032    -0.43400
H2061       H  0.05264419  0.09815114  0.68953271     0.12800
H2062       H  0.14216371  0.07680004  0.67167399     0.09300
H2063       H  0.12946978  0.14085825  0.72552339     0.10400
H2064       H  0.17933757  0.14778161  0.62066256     0.16200
C2065       C  0.00642200  0.01330786  0.52913469    -0.02000
C2066       C  0.99374500  0.99406455  0.51175708     0.06600
C2067       C  0.97896576  0.97696731  0.52979606    -0.08000
C2068       C  0.97707605  0.97834339  0.56479429     0.04000
C2069       C  0.99085747  0.99673018  0.58267353    -0.15200
C2070       C  0.00508153  0.01438699  0.56432646    -0.08600
C2071       C  0.99417876  0.99242466  0.47454910     0.04900
C2072       C  0.00732717  0.97281607  0.45879616    -0.09700
C2073       C  0.00815171  0.97109450  0.42355509    -0.00100
C2074       C  0.99562222  0.98929818  0.40368217    -0.00200
C2075       C  0.98187400  0.00833289  0.41979909    -0.13200
C2076       C  0.98100565  0.00996015  0.45472830     0.00300
C2077       C  0.02269669  0.95119020  0.40853036     0.39600
C2078       C  0.96627917  0.02973711  0.46970796     0.36200
C2079       C  0.02068457  0.03221201  0.51123457     0.35900
C2080       C  0.95993033  0.96126566  0.58131487     0.36700
N2081       N  0.03429972  0.93526075  0.39634392    -0.44100
N2082       N  0.95450127  0.04560817  0.48169707    -0.44600
N2083       N  0.94591325  0.94757752  0.59402421    -0.41900
N2084       N  0.03175429  0.04747524  0.49659396    -0.43400
H2085       H  0.01554457  0.02876592  0.57748403     0.12800
H2086       H  0.96844963  0.96276602  0.51634289     0.09300
H2087       H  0.01723452  0.95908182  0.47406160     0.10400
H2088       H  0.97174887  0.02219083  0.40497937     0.16200
C2089       C  0.01636928  0.98532351  0.03142335    -0.02000
C2090       C  0.00312248  0.00316271  0.01211770     0.06600
C2091       C  0.99017772  0.02259909  0.02851800    -0.08000
C2092       C  0.98988638  0.02409459  0.06376395     0.04000
C2093       C  0.00269897  0.00578766  0.08316336    -0.15200
C2094       C  0.01605244  0.98674680  0.06642679    -0.08600
C2095       C  0.00282799  0.00173140  0.97482696     0.04900
C2096       C  0.99191229  0.98075963  0.95926456    -0.09700
C2097       C  0.99217189  0.97822689  0.92420157    -0.00100
C2098       C  0.00326438  0.99716738  0.90398337    -0.00200
C2099       C  0.01428484  0.01806596  0.91981122    -0.13200
C2100       C  0.01422261  0.02041709  0.95478551     0.00300
C2101       C  0.98036576  0.95637898  0.90976871     0.39600
C2102       C  0.02649901  0.04186195  0.96961880     0.36200
C2103       C  0.03078482  0.96555038  0.01587213     0.35900
C2104       C  0.97543697  0.04385448  0.07925067     0.36700
N2105       N  0.97100448  0.93882627  0.89815881    -0.44100
N2106       N  0.03633044  0.05899253  0.98163709    -0.44600
N2107       N  0.96388214  0.05966021  0.09179205    -0.41900
N2108       N  0.04234890  0.94969805  0.00346701    -0.43400
H2109       H  0.02629491  0.97271401  0.08079500     0.12800
H2110       H  0.97997478  0.03640363  0.01372293     0.09300
H2111       H  0.98320572  0.96627780  0.97465358     0.10400
H2112       H  0.02312498  0.03267856  0.90478548     0.16200
C2113       C  0.83590919  0.12719358  0.20030837    -0.02000
C2114       C  0.86077043  0.13168826  0.18954012     0.06600
C2115       C  0.86670114  0.15511260  0.17504870    -0.08000
C2116       C  0.84847422  0.17391401  0.17134627     0.04000
C2117       C  0.82355381  0.16931495  0.18173083    -0.15200
C2118       C  0.81754387  0.14581086  0.19597202    -0.08600
C2119       C  0.88075142  0.11215663  0.19286666     0.04900
C2120       C  0.87716458  0.08843124  0.17822977    -0.09700
C2121       C  0.89508307  0.06931957  0.18187257    -0.00100
C2122       C  0.91752452  0.07403643  0.19945794    -0.00200
C2123       C  0.92149884  0.09794082  0.21325163    -0.13200
C2124       C  0.90322635  0.11682503  0.21053050     0.00300
C2125       C  0.89016597  0.04510317  0.16703540     0.39600
C2126       C  0.90743227  0.14042751  0.22739045     0.36200
C2127       C  0.82895953  0.10386689  0.21663845     0.35900
C2128       C  0.85558634  0.19721540  0.15511987     0.36700
N2129       N  0.88623682  0.02565645  0.15524687    -0.44100
N2130       N  0.91062623  0.15937619  0.24088620    -0.44600
N2131       N  0.86136195  0.21586734  0.14211176    -0.41900
N2132       N  0.82357626  0.08513399  0.22976199    -0.43400
H2133       H  0.79843909  0.14203465  0.20390164     0.12800
H2134       H  0.88561913  0.15860014  0.16615524     0.09300
H2135       H  0.86016064  0.08474637  0.16418723     0.10400
H2136       H  0.93853092  0.10156225  0.22727534     0.16200
C2137       C  0.84753971  0.86426314  0.33952988    -0.02000
C2138       C  0.86345989  0.86191869  0.31143596     0.06600
C2139       C  0.86018501  0.84137072  0.28983923    -0.08000
C2140       C  0.84127262  0.82344264  0.29563579     0.04000
C2141       C  0.82523905  0.82579189  0.32376563    -0.15200
C2142       C  0.82871101  0.84639894  0.34537628    -0.08600
C2143       C  0.88300018  0.88121023  0.30369274     0.04900
C2144       C  0.90243557  0.88546653  0.32676471    -0.09700
C2145       C  0.92034112  0.90441558  0.32118563    -0.00100
C2146       C  0.91929181  0.91930836  0.29160875    -0.00200
C2147       C  0.89982099  0.91490439  0.26854729    -0.13200
C2148       C  0.88183197  0.89614885  0.27431278     0.00300
C2149       C  0.93847446  0.90920354  0.34727037     0.39600
C2150       C  0.86201698  0.89300421  0.25001099     0.36200
C2151       C  0.84985151  0.88512840  0.36240196     0.35900
C2152       C  0.83801133  0.80369378  0.27133831     0.36700
N2153       N  0.95279454  0.91321749  0.36838510    -0.44100
N2154       N  0.84621368  0.89047027  0.23043180    -0.44600
N2155       N  0.83538889  0.78802595  0.25160542    -0.41900
N2156       N  0.85184639  0.90180940  0.38074547    -0.43400
H2157       H  0.81676018  0.84852814  0.36723680     0.12800
H2158       H  0.87228134  0.83952870  0.26808226     0.09300
H2159       H  0.90329197  0.87426218  0.34960697     0.10400
H2160       H  0.89865288  0.92612376  0.24574270     0.16200
C2161       C  0.10516678  0.89538251  0.32950747    -0.02000
C2162       C  0.12158254  0.88822342  0.30330699     0.06600
C2163       C  0.11834807  0.89882114  0.27134283    -0.08000
C2164       C  0.09955395  0.91655098  0.26519858     0.04000
C2165       C  0.08362105  0.92445809  0.29158069    -0.15200
C2166       C  0.08636523  0.91339000  0.32347580    -0.08600
C2167       C  0.14144344  0.86880863  0.30792776     0.04900
C2168       C  0.13446582  0.84433888  0.31749390    -0.09700
C2169       C  0.15243166  0.82533183  0.32151748    -0.00100
C2170       C  0.17806672  0.83065015  0.31576873    -0.00200
C2171       C  0.18499147  0.85505693  0.30569566    -0.13200
C2172       C  0.16699502  0.87401157  0.30147519     0.00300
C2173       C  0.14407243  0.80100573  0.33336173     0.39600
C2174       C  0.17536115  0.89873998  0.29119134     0.36200
C2175       C  0.10752828  0.88484617  0.36286068     0.35900
C2176       C  0.09599378  0.92481797  0.23090705     0.36700
N2177       N  0.13718741  0.78160327  0.34297501    -0.44100
N2178       N  0.18222615  0.91845226  0.28275393    -0.44600
N2179       N  0.09323817  0.93083752  0.20317439    -0.41900
N2180       N  0.10937033  0.87631317  0.38956219    -0.43400
H2181       H  0.07407779  0.91907176  0.34377594     0.12800
H2182       H  0.13021023  0.89268818  0.25080679     0.09300
H2183       H  0.11484963  0.84009196  0.32196754     0.10400
H2184       H  0.20461596  0.85940498  0.30142707     0.16200
C2185       C  0.09237916  0.11673922  0.17989050    -0.02000
C2186       C  0.11815073  0.11131608  0.18314955     0.06600
C2187       C  0.12561069  0.08634566  0.18845123    -0.08000
C2188       C  0.10803651  0.06693330  0.19132871     0.04000
C2189       C  0.08197718  0.07235742  0.19000940    -0.15200
C2190       C  0.07457362  0.09737613  0.18333982    -0.08600
C2191       C  0.13783723  0.13118676  0.18104795     0.04900
C2192       C  0.13781232  0.15112646  0.20412762    -0.09700
C2193       C  0.15667501  0.16962226  0.20347617    -0.00100
C2194       C  0.17633504  0.16802609  0.17975941    -0.00200
C2195       C  0.17633126  0.14782070  0.15704235    -0.13200
C2196       C  0.15734519  0.12976642  0.15724286     0.00300
C2197       C  0.15562949  0.18949589  0.22791806     0.39600
C2198       C  0.15785248  0.11054545  0.13175546     0.36200
C2199       C  0.08388060  0.14205682  0.17308283     0.35900
C2200       C  0.11768701  0.04168188  0.19509416     0.36700
N2201       N  0.15451384  0.20526408  0.24776003    -0.44100
N2202       N  0.15836508  0.09524563  0.11122096    -0.44600
N2203       N  0.12581219  0.02159285  0.19795061    -0.41900
N2204       N  0.07736927  0.16246152  0.16771287    -0.43400
H2205       H  0.05481992  0.10205396  0.18189694     0.12800
H2206       H  0.14542351  0.08198722  0.19055862     0.09300
H2207       H  0.12309805  0.15211964  0.22289168     0.10400
H2208       H  0.19081130  0.14652319  0.13798308     0.16200
loop_ 
_geom_bond_atom_site_label_1 
_geom_bond_atom_site_label_2 
_geom_bond_distance 
_geom_bond_site_symmetry_2 
_ccdc_geom_bond_type 
Zr1           O2   2.442       .  S
Zr1           O3   2.457       .  S
Zr1           O4   2.466   1_655  S
Zr1           O7   2.449       .  S
Zr1           O9   2.381   1_645  S
Zr1          O10   2.391   1_545  S
Zr1          O11   2.411   1_655  S
Zr1          O12   2.404       .  S
O2           H58   0.990   1_655  S
O2           H66   0.991   1_655  S
O3           C23   1.287   1_655  A
O4           C25   1.289       .  A
O5          Zr15   2.425   1_545  S
O5           C24   1.284       .  A
O6          Zr14   2.417   1_545  S
O6           C25   1.281       .  A
O7           C24   1.287       .  A
O8          Zr16   2.399   1_455  S
O8           C23   1.278   1_565  A
O9          Zr14   2.394       .  S
O9          Zr16   2.383   1_455  S
O10         Zr15   2.394       .  S
O10         Zr16   2.374       .  S
O10          H45   0.966   1_565  S
O11         Zr14   2.396   1_545  S
O11         Zr31   2.392   1_455  S
O11          H48   0.965       .  S
O12         Zr15   2.390   1_545  S
O12         Zr31   2.385       .  S
Zr13         O38   2.443   1_455  S
Zr13         O32   2.454   1_455  S
Zr13         O40   2.448   1_455  S
Zr13         O28   2.469       .  S
Zr13         O19   2.408   1_455  S
Zr13         O20   2.410       .  S
Zr13         O21   2.383       .  S
Zr13         O22   2.389   1_455  S
Zr14         O33   2.435   1_565  S
Zr14         O26   2.431       .  S
Zr14         O27   2.410       .  S
Zr14         O20   2.404       .  S
Zr14         O21   2.394       .  S
Zr15         O17   2.435   1_565  S
Zr15         O39   2.437       .  S
Zr15         O41   2.430       .  S
Zr15         O19   2.387       .  S
Zr15         O22   2.395       .  S
Zr16         O42   2.437       .  S
Zr16         O43   2.435       .  S
Zr16         O18   2.436   1_655  S
Zr16         O19   2.384       .  S
Zr16         O20   2.385   1_655  S
O17          H54   0.990   1_545  S
O18          H49   0.990       .  S
O18          H63   0.990       .  S
O20          H46   0.964       .  S
O21         Zr31   2.382   1_465  S
O22         Zr31   2.379   1_565  S
O22          H47   0.966       .  S
C23        C2093   1.489       .  S
C24        C2122   1.479       .  S
C25        C2189   1.497       .  S
O26          H62   0.990       .  S
O27          C29   1.281       .  A
O28          C29   1.289       .  A
C29        C2165   1.482       .  S
O30         Zr31   2.438       .  S
O30          H59   0.990       .  S
Zr31         O34   2.437   1_655  S
Zr31         O35   2.440       .  S
Zr31         O36   2.400       .  S
O32          C37   1.287       .  A
O33          H50   0.990       .  S
O33          H65   0.990       .  S
O34          H51   0.990       .  S
O35          H55   0.990       .  S
O35          H64   0.990       .  S
O36          C37   1.279   1_545  A
C37        C2074   1.485       .  S
O38          H57   0.991   1_655  S
O38          H61   0.990   1_655  S
O39          H53   0.990       .  S
O39          H60   0.990       .  S
O40          C44   1.288       .  A
O41          C44   1.285       .  A
O42          H52   0.990       .  S
O43          H56   0.990       .  S
C44        C2146   1.491       .  S
Zr67         O68   2.443       .  S
Zr67         O69   2.458       .  S
Zr67         O70   2.447   1_655  S
Zr67         O73   2.448       .  S
Zr67         O75   2.382   1_645  S
Zr67         O76   2.385   1_545  S
Zr67         O77   2.416   1_655  S
Zr67         O78   2.402       .  S
O68         H124   0.991   1_655  S
O68         H132   0.991   1_655  S
O69          C89   1.288   1_545  A
O70          C91   1.285       .  A
O71         Zr81   2.425   1_545  S
O71          C90   1.283       .  A
O72         Zr80   2.421   1_545  S
O72          C91   1.282       .  A
O73          C90   1.287       .  A
O74         Zr82   2.409       .  S
O74          C89   1.279       .  A
O75         Zr80   2.395       .  S
O75         Zr82   2.382   1_455  S
O76         Zr81   2.393       .  S
O76         Zr82   2.381       .  S
O76         H111   0.967       .  S
O77         Zr80   2.398   1_545  S
O77         Zr97   2.382       .  S
O77         H114   0.964       .  S
O78         Zr81   2.383   1_545  S
O78         Zr97   2.388   1_655  S
Zr79        O104   2.442       .  S
Zr79         O98   2.454   1_655  S
Zr79        O106   2.442       .  S
Zr79         O94   2.464   1_655  S
Zr79         O85   2.404       .  S
Zr79         O86   2.410   1_655  S
Zr79         O87   2.379   1_655  S
Zr79         O88   2.386       .  S
Zr80         O99   2.436   1_565  S
Zr80         O92   2.436       .  S
Zr80         O93   2.409       .  S
Zr80         O86   2.397       .  S
Zr80         O87   2.396       .  S
Zr81         O83   2.437   1_565  S
Zr81        O105   2.438       .  S
Zr81        O107   2.415       .  S
Zr81         O85   2.391       .  S
Zr81         O88   2.397       .  S
Zr82        O108   2.434       .  S
Zr82        O109   2.436       .  S
Zr82         O84   2.437   1_655  S
Zr82         O85   2.388       .  S
Zr82         O86   2.382   1_655  S
O83         H120   0.990       .  S
O84         H115   0.990       .  S
O84         H129   0.990       .  S
O86         H112   0.964       .  S
O87         Zr97   2.380   1_565  S
O88         Zr97   2.376   1_665  S
O88         H113   0.965       .  S
C89        C2069   1.489       .  S
C90        C1978   1.494       .  S
C91        C2045   1.482       .  S
O92         H128   0.990       .  S
O93          C95   1.282       .  A
O94          C95   1.288       .  A
C95        C2026   1.485       .  S
O96         Zr97   2.437       .  S
O96         H125   0.990       .  S
Zr97        O100   2.437       .  S
Zr97        O101   2.439   1_455  S
Zr97        O102   2.400       .  S
O98         C103   1.287       .  A
O99         H116   0.991       .  S
O99         H131   0.990       .  S
O100        H117   0.990       .  S
O101        H121   0.990       .  S
O101        H130   0.990       .  S
O102        C103   1.278   1_545  A
C103       C2098   1.488       .  S
O104        H123   0.991   1_655  S
O104        H127   0.990   1_655  S
O105        H119   0.990       .  S
O105        H126   0.990       .  S
O106        C110   1.287       .  A
O107        C110   1.281       .  A
O108        H118   0.990       .  S
O109        H122   0.990       .  S
C110       C2002   1.489       .  S
Zr133       O134   2.441       .  S
Zr133       O135   2.454       .  S
Zr133       O136   2.452       .  S
Zr133       O139   2.450       .  S
Zr133       O141   2.381       .  S
Zr133       O142   2.387       .  S
Zr133       O143   2.416       .  S
Zr133       O144   2.396       .  S
O134        H190   0.990       .  S
O134        H198   0.991       .  S
O135        C155   1.286       .  A
O136        C157   1.287       .  A
O137       Zr147   2.425       .  S
O137        C156   1.283       .  A
O138       Zr146   2.407       .  S
O138        C157   1.279       .  A
O139        C156   1.288       .  A
O140       Zr148   2.411       .  S
O140        C155   1.279       .  A
O141       Zr146   2.393       .  S
O141       Zr148   2.377       .  S
O142       Zr147   2.395       .  S
O142       Zr148   2.377       .  S
O142        H177   0.966       .  S
O143       Zr146   2.399       .  S
O143       Zr163   2.388       .  S
O143        H180   0.965       .  S
O144       Zr147   2.381       .  S
O144       Zr163   2.376       .  S
Zr145       O170   2.439       .  S
Zr145       O164   2.464       .  S
Zr145       O172   2.452       .  S
Zr145       O160   2.466       .  S
Zr145       O151   2.410       .  S
Zr145       O152   2.418       .  S
Zr145       O153   2.380       .  S
Zr145       O154   2.389       .  S
Zr146       O165   2.437       .  S
Zr146       O158   2.436       .  S
Zr146       O159   2.415       .  S
Zr146       O152   2.393       .  S
Zr146       O153   2.393       .  S
Zr147       O149   2.436       .  S
Zr147       O171   2.437       .  S
Zr147       O173   2.418       .  S
Zr147       O151   2.385       .  S
Zr147       O154   2.401       .  S
Zr148       O174   2.435       .  S
Zr148       O175   2.436       .  S
Zr148       O150   2.436       .  S
Zr148       O151   2.391       .  S
Zr148       O152   2.384       .  S
O149        H186   0.990       .  S
O150        H181   0.990       .  S
O150        H195   0.989       .  S
O152        H178   0.964       .  S
O153       Zr163   2.385       .  S
O154       Zr163   2.384       .  S
O154        H179   0.966       .  S
C155       C1858   1.481   1_554  S
C156       C1925   1.478       .  S
C157       C1949   1.484       .  S
O158        H194   0.990       .  S
O159        C161   1.283       .  A
O160        C161   1.289       .  A
C161       C2194   1.489       .  S
O162       Zr163   2.438       .  S
O162        H191   0.990       .  S
Zr163       O166   2.436       .  S
Zr163       O167   2.439       .  S
Zr163       O168   2.397       .  S
O164        C169   1.289       .  A
O165        H182   0.991       .  S
O165        H197   0.990       .  S
O166        H183   0.990       .  S
O167        H187   0.990       .  S
O167        H196   0.990       .  S
O168        C169   1.277       .  A
C169       C1877   1.484       .  S
O170        H189   0.990       .  S
O170        H193   0.989       .  S
O171        H185   0.990       .  S
O171        H192   0.989       .  S
O172        C176   1.288       .  A
O173        C176   1.283       .  A
O174        H184   0.990       .  S
O175        H188   0.990       .  S
C176       C1906   1.485       .  S
Zr199       O200   2.439       .  S
Zr199       O201   2.453       .  S
Zr199       O202   2.458       .  S
Zr199       O205   2.457       .  S
Zr199       O207   2.386       .  S
Zr199       O208   2.387       .  S
Zr199       O209   2.412       .  S
Zr199       O210   2.401       .  S
O200        H256   0.990       .  S
O200        H264   0.990       .  S
O201        C221   1.287       .  A
O202        C223   1.287       .  A
O203       Zr213   2.417       .  S
O203        C222   1.284       .  A
O204       Zr212   2.414       .  S
O204        C223   1.282       .  A
O205        C222   1.288       .  A
O206       Zr214   2.418       .  S
O206        C221   1.281       .  A
O207       Zr212   2.398       .  S
O207       Zr214   2.377       .  S
O208       Zr213   2.393       .  S
O208       Zr214   2.377       .  S
O208        H243   0.966       .  S
O209       Zr212   2.403       .  S
O209       Zr229   2.387       .  S
O209        H246   0.965       .  S
O210       Zr213   2.388       .  S
O210       Zr229   2.385       .  S
Zr211       O236   2.441       .  S
Zr211       O230   2.462       .  S
Zr211       O238   2.437       .  S
Zr211       O226   2.446       .  S
Zr211       O217   2.409       .  S
Zr211       O218   2.414       .  S
Zr211       O219   2.377       .  S
Zr211       O220   2.380       .  S
Zr212       O231   2.436       .  S
Zr212       O224   2.435       .  S
Zr212       O225   2.430       .  S
Zr212       O218   2.394       .  S
Zr212       O219   2.394       .  S
Zr213       O215   2.436       .  S
Zr213       O237   2.437       .  S
Zr213       O239   2.423       .  S
Zr213       O217   2.384       .  S
Zr213       O220   2.399       .  S
Zr214       O240   2.435       .  S
Zr214       O241   2.435       .  S
Zr214       O216   2.435       .  S
Zr214       O217   2.397       .  S
Zr214       O218   2.383       .  S
O215        H252   0.990       .  S
O216        H247   0.990       .  S
O216        H261   0.989       .  S
O218        H244   0.964       .  S
O219       Zr229   2.380       .  S
O220       Zr229   2.380       .  S
O220        H245   0.966       .  S
C221       C1853   1.489       .  S
C222       C1786   1.494       .  S
C223       C2050   1.485       .  S
O224        H260   0.990       .  S
O225        C227   1.285       .  A
O226        C227   1.286       .  A
C227       C1834   1.489       .  S
O228       Zr229   2.438       .  S
O228        H257   0.991       .  S
Zr229       O232   2.437       .  S
Zr229       O233   2.439       .  S
Zr229       O234   2.402       .  S
O230        C235   1.288       .  A
O231        H248   0.990       .  S
O231        H263   0.990       .  S
O232        H249   0.990       .  S
O233        H253   0.990       .  S
O233        H262   0.990       .  S
O234        C235   1.277       .  A
C235       C1882   1.500       .  S
O236        H255   0.990       .  S
O236        H259   0.990       .  S
O237        H251   0.990       .  S
O237        H258   0.990       .  S
O238        C242   1.286       .  A
O239        C242   1.282       .  A
O240        H250   0.990       .  S
O241        H254   0.990       .  S
C242       C1810   1.497       .  S
Zr265       O266   2.442       .  S
Zr265       O267   2.452       .  S
Zr265       O268   2.460       .  S
Zr265       O271   2.440       .  S
Zr265       O273   2.382       .  S
Zr265       O274   2.389       .  S
Zr265       O275   2.412       .  S
Zr265       O276   2.408       .  S
O266        H322   0.990       .  S
O266        H330   0.991       .  S
O267        C287   1.286       .  A
O268        C289   1.289       .  A
O269       Zr279   2.410       .  S
O269        C288   1.281       .  A
O270       Zr278   2.427       .  S
O270        C289   1.283       .  A
O271        C288   1.285       .  A
O272       Zr280   2.410       .  S
O272        C287   1.280       .  A
O273       Zr278   2.398       .  S
O273       Zr280   2.384       .  S
O274       Zr279   2.393       .  S
O274       Zr280   2.374       .  S
O274        H309   0.966       .  S
O275       Zr278   2.400       .  S
O275       Zr295   2.387       .  S
O275        H312   0.965       .  S
O276       Zr279   2.387       .  S
O276       Zr295   2.387       .  S
Zr277       O302   2.442       .  S
Zr277       O296   2.452       .  S
Zr277       O304   2.451       .  S
Zr277       O292   2.451       .  S
Zr277       O283   2.402       .  S
Zr277       O284   2.414       .  S
Zr277       O285   2.382       .  S
Zr277       O286   2.384       .  S
Zr278       O297   2.436       .  S
Zr278       O290   2.435       .  S
Zr278       O291   2.425       .  S
Zr278       O284   2.395       .  S
Zr278       O285   2.395       .  S
Zr279       O281   2.435       .  S
Zr279       O303   2.436       .  S
Zr279       O305   2.414       .  S
Zr279       O283   2.388       .  S
Zr279       O286   2.391       .  S
Zr280       O306   2.435       .  S
Zr280       O307   2.436       .  S
Zr280       O282   2.436       .  S
Zr280       O283   2.388       .  S
Zr280       O284   2.385       .  S
O281        H318   0.990       .  S
O282        H313   0.990       .  S
O282        H327   0.990       .  S
O284        H310   0.964       .  S
O285       Zr295   2.382       .  S
O286       Zr295   2.381       .  S
O286        H311   0.966       .  S
C287       C1661   1.493       .  S
C288       C1733   1.471       .  S
C289       C1757   1.494       .  S
O290        H326   0.990       .  S
O291        C293   1.284       .  A
O292        C293   1.287       .  A
C293       C2170   1.482       .  S
O294       Zr295   2.440       .  S
O294        H323   0.990       .  S
Zr295       O298   2.436       .  S
Zr295       O299   2.441       .  S
Zr295       O300   2.407       .  S
O296        C301   1.286       .  A
O297        H314   0.990       .  S
O297        H329   0.990       .  S
O298        H315   0.990       .  S
O299        H319   0.990       .  S
O299        H328   0.989       .  S
O300        C301   1.279       .  A
C301       C1685   1.489       .  S
O302        H321   0.991       .  S
O302        H325   0.990       .  S
O303        H317   0.990       .  S
O303        H324   0.990       .  S
O304        C308   1.287       .  A
O305        C308   1.280       .  A
O306        H316   0.990       .  S
O307        H320   0.990       .  S
C308       C1709   1.490       .  S
Zr331       O332   2.442       .  S
Zr331       O333   2.450       .  S
Zr331       O334   2.460       .  S
Zr331       O337   2.437       .  S
Zr331       O339   2.377       .  S
Zr331       O340   2.386       .  S
Zr331       O341   2.409       .  S
Zr331       O342   2.404       .  S
O332        H388   0.990       .  S
O332        H396   0.990       .  S
O333        C353   1.287       .  A
O334        C355   1.288       .  A
O335       Zr345   2.427       .  S
O335        C354   1.284       .  A
O336       Zr344   2.417       .  S
O336        C355   1.281       .  A
O337        C354   1.285       .  A
O338       Zr346   2.401       .  S
O338        C353   1.278       .  A
O339       Zr344   2.395       .  S
O339       Zr346   2.386       .  S
O340       Zr345   2.393       .  S
O340       Zr346   2.376       .  S
O340        H375   0.965       .  S
O341       Zr344   2.394       .  S
O341       Zr361   2.392       .  S
O341        H378   0.965       .  S
O342       Zr345   2.386       .  S
O342       Zr361   2.384       .  S
Zr343       O368   2.441       .  S
Zr343       O362   2.447       .  S
Zr343       O370   2.466       .  S
Zr343       O358   2.463       .  S
Zr343       O349   2.401       .  S
Zr343       O350   2.409       .  S
Zr343       O351   2.385       .  S
Zr343       O352   2.391       .  S
Zr344       O363   2.436       .  S
Zr344       O356   2.434       .  S
Zr344       O357   2.411       .  S
Zr344       O350   2.396       .  S
Zr344       O351   2.392       .  S
Zr345       O347   2.436       .  S
Zr345       O369   2.437       .  S
Zr345       O371   2.418       .  S
Zr345       O349   2.388       .  S
Zr345       O352   2.394       .  S
Zr346       O372   2.435       .  S
Zr346       O373   2.437       .  S
Zr346       O348   2.435       .  S
Zr346       O349   2.383       .  S
Zr346       O350   2.377       .  S
O347        H384   0.990       .  S
O348        H379   0.990       .  S
O348        H393   0.990       .  S
O350        H376   0.964       .  S
O351       Zr361   2.386       .  S
O352       Zr361   2.384       .  S
O352        H377   0.966       .  S
C353       C1690   1.486   1_556  S
C354       C1613   1.482       .  S
C355       C1637   1.493       .  S
O356        H392   0.990       .  S
O357        C359   1.281       .  A
O358        C359   1.290       .  A
C359       C2021   1.495       .  S
O360       Zr361   2.441       .  S
O360        H389   0.990       .  S
Zr361       O364   2.437       .  S
Zr361       O365   2.437       .  S
Zr361       O366   2.410       .  S
O362        C367   1.286       .  A
O363        H380   0.990       .  S
O363        H395   0.990       .  S
O364        H381   0.990       .  S
O365        H385   0.990       .  S
O365        H394   0.989       .  S
O366        C367   1.280       .  A
C367       C1666   1.481       .  S
O368        H387   0.990       .  S
O368        H391   0.991       .  S
O369        H383   0.990       .  S
O369        H390   0.989       .  S
O370        C374   1.289       .  A
O371        C374   1.282       .  A
O372        H382   0.990       .  S
O373        H386   0.990       .  S
C374       C1594   1.481       .  S
Zr397       O398   2.440       .  S
Zr397       O399   2.463       .  S
Zr397       O400   2.463       .  S
Zr397       O403   2.460       .  S
Zr397       O405   2.383       .  S
Zr397       O406   2.387       .  S
Zr397       O407   2.416   1_556  S
Zr397       O408   2.403   1_556  S
O398        H454   0.989       .  S
O398        H462   0.990       .  S
O399        C419   1.288       .  A
O400        C421   1.289       .  A
O401       Zr411   2.423   1_556  S
O401        C420   1.283       .  A
O402       Zr410   2.413   1_556  S
O402        C421   1.281       .  A
O403        C420   1.289       .  A
O404       Zr412   2.400       .  S
O404        C419   1.277   1_545  A
O405       Zr410   2.394   1_556  S
O405       Zr412   2.383   1_565  S
O406       Zr411   2.397   1_556  S
O406       Zr412   2.379   1_565  S
O406        H441   0.966       .  S
O407       Zr410   2.397       .  S
O407       Zr427   2.388       .  S
O407        H444   0.964       .  S
O408       Zr411   2.385       .  S
O408       Zr427   2.391       .  S
Zr409       O434   2.440       .  S
Zr409       O428   2.454       .  S
Zr409       O436   2.447       .  S
Zr409       O424   2.462       .  S
Zr409       O415   2.404       .  S
Zr409       O416   2.409       .  S
Zr409       O417   2.378   1_545  S
Zr409       O418   2.387   1_545  S
Zr410       O429   2.436       .  S
Zr410       O422   2.436   1_564  S
Zr410       O423   2.408   1_565  S
Zr410       O416   2.401   1_565  S
Zr410       O417   2.391       .  S
Zr411       O413   2.435       .  S
Zr411       O435   2.439   1_564  S
Zr411       O437   2.413   1_565  S
Zr411       O415   2.386   1_565  S
Zr411       O418   2.397       .  S
Zr412       O438   2.438       .  S
Zr412       O439   2.435       .  S
Zr412       O414   2.436       .  S
Zr412       O415   2.383   1_556  S
Zr412       O416   2.382   1_556  S
O413        H450   0.990       .  S
O414        H445   0.990       .  S
O414        H459   0.990       .  S
O416        H442   0.965   1_554  S
O417       Zr427   2.379       .  S
O418       Zr427   2.377       .  S
O418        H443   0.967   1_565  S
C419       C1498   1.483       .  S
C420       C1546   1.482       .  S
C421       C1642   1.485       .  S
O422        H458   0.990       .  S
O423        C425   1.281       .  A
O424        C425   1.289       .  A
C425       C1954   1.483       .  S
O426       Zr427   2.439       .  S
O426        H455   0.990       .  S
Zr427       O430   2.438       .  S
Zr427       O431   2.439       .  S
Zr427       O432   2.408       .  S
O428        C433   1.287       .  A
O429        H446   0.990       .  S
O429        H461   0.990       .  S
O430        H447   0.990       .  S
O431        H451   0.990       .  S
O431        H460   0.990       .  S
O432        C433   1.281   1_565  A
C433       C1517   1.500       .  S
O434        H453   0.990       .  S
O434        H457   0.989       .  S
O435        H449   0.990       .  S
O435        H456   0.990       .  S
O436        C440   1.287       .  A
O437        C440   1.282       .  A
O438        H448   0.990       .  S
O439        H452   0.990       .  S
C440       C1570   1.479       .  S
Zr463       O464   2.439       .  S
Zr463       O465   2.454       .  S
Zr463       O466   2.473       .  S
Zr463       O469   2.448       .  S
Zr463       O471   2.379   1_565  S
Zr463       O472   2.390   1_565  S
Zr463       O473   2.413       .  S
Zr463       O474   2.408       .  S
O464        H520   0.989       .  S
O464        H528   0.990       .  S
O465        C485   1.286       .  A
O466        C487   1.291       .  A
O467       Zr477   2.421   1_565  S
O467        C486   1.283       .  A
O468       Zr476   2.417   1_565  S
O468        C487   1.283       .  A
O469        C486   1.288       .  A
O470       Zr478   2.408       .  S
O470        C485   1.278   1_545  A
O471       Zr476   2.391       .  S
O471       Zr478   2.379       .  S
O472       Zr477   2.400       .  S
O472       Zr478   2.377       .  S
O472        H507   0.966   1_545  S
O473       Zr476   2.405   1_565  S
O473       Zr493   2.383       .  S
O473        H510   0.963       .  S
O474       Zr477   2.392   1_565  S
O474       Zr493   2.388       .  S
Zr475       O500   2.441       .  S
Zr475       O494   2.460       .  S
Zr475       O502   2.436       .  S
Zr475       O490   2.454       .  S
Zr475       O481   2.405       .  S
Zr475       O482   2.413       .  S
Zr475       O483   2.378       .  S
Zr475       O484   2.386       .  S
Zr476       O495   2.436   1_545  S
Zr476       O488   2.436       .  S
Zr476       O489   2.421       .  S
Zr476       O482   2.397       .  S
Zr476       O483   2.398       .  S
Zr477       O479   2.436   1_545  S
Zr477       O501   2.435       .  S
Zr477       O503   2.429       .  S
Zr477       O481   2.385       .  S
Zr477       O484   2.393       .  S
Zr478       O504   2.437       .  S
Zr478       O505   2.435       .  S
Zr478       O480   2.438       .  S
Zr478       O481   2.390       .  S
Zr478       O482   2.389       .  S
O479        H516   0.990       .  S
O480        H511   0.990       .  S
O480        H525   0.990       .  S
O482        H508   0.964       .  S
O483       Zr493   2.386   1_545  S
O484       Zr493   2.378   1_545  S
O484        H509   0.968       .  S
C485       C1522   1.480       .  S
C486       C1445   1.491       .  S
C487       C1762   1.491       .  S
O488        H524   0.990       .  S
O489        C491   1.283       .  A
O490        C491   1.286       .  A
C491       C1829   1.483       .  S
O492       Zr493   2.439       .  S
O492        H521   0.991       .  S
Zr493       O496   2.435       .  S
Zr493       O497   2.440       .  S
Zr493       O498   2.404       .  S
O494        C499   1.288       .  A
O495        H512   0.990       .  S
O495        H527   0.990       .  S
O496        H513   0.990       .  S
O497        H517   0.990       .  S
O497        H526   0.990       .  S
O498        C499   1.279   1_565  A
C499       C1493   1.487       .  S
O500        H519   0.991       .  S
O500        H523   0.989       .  S
O501        H515   0.990       .  S
O501        H522   0.990       .  S
O502        C506   1.285       .  A
O503        C506   1.284       .  A
O504        H514   0.990       .  S
O505        H518   0.990       .  S
C506       C1469   1.480       .  S
Zr529       O530   2.439       .  S
Zr529       O531   2.459       .  S
Zr529       O532   2.456       .  S
Zr529       O535   2.463       .  S
Zr529       O537   2.383       .  S
Zr529       O538   2.385       .  S
Zr529       O539   2.417       .  S
Zr529       O540   2.399       .  S
O530        H586   0.990       .  S
O530        H594   0.990       .  S
O531        C551   1.289       .  A
O532        C553   1.287       .  A
O533       Zr543   2.413       .  S
O533        C552   1.282       .  A
O534       Zr542   2.415       .  S
O534        C553   1.282       .  A
O535        C552   1.290       .  A
O536       Zr544   2.410       .  S
O536        C551   1.280       .  A
O537       Zr542   2.398       .  S
O537       Zr544   2.379       .  S
O538       Zr543   2.397       .  S
O538       Zr544   2.376       .  S
O538        H573   0.966       .  S
O539       Zr542   2.398       .  S
O539       Zr559   2.394       .  S
O539        H576   0.965       .  S
O540       Zr543   2.384       .  S
O540       Zr559   2.385       .  S
Zr541       O566   2.441       .  S
Zr541       O560   2.455       .  S
Zr541       O568   2.449       .  S
Zr541       O556   2.456       .  S
Zr541       O547   2.406       .  S
Zr541       O548   2.414       .  S
Zr541       O549   2.382       .  S
Zr541       O550   2.383       .  S
Zr542       O561   2.434       .  S
Zr542       O554   2.435       .  S
Zr542       O555   2.413       .  S
Zr542       O548   2.404       .  S
Zr542       O549   2.393       .  S
Zr543       O545   2.436       .  S
Zr543       O567   2.437       .  S
Zr543       O569   2.419       .  S
Zr543       O547   2.387       .  S
Zr543       O550   2.398       .  S
Zr544       O570   2.434       .  S
Zr544       O571   2.437       .  S
Zr544       O546   2.439       .  S
Zr544       O547   2.393       .  S
Zr544       O548   2.382       .  S
O545        H582   0.990       .  S
O546        H577   0.989       .  S
O546        H591   0.990       .  S
O548        H574   0.964       .  S
O549       Zr559   2.382       .  S
O550       Zr559   2.380       .  S
O550        H575   0.966       .  S
C551       C1373   1.496       .  S
C552       C2141   1.492       .  S
C553       C1402   1.484       .  S
O554        H590   0.989       .  S
O555        C557   1.281       .  A
O556        C557   1.288       .  A
C557       C1421   1.479       .  S
O558       Zr559   2.438       .  S
O558        H587   0.990       .  S
Zr559       O562   2.439       .  S
Zr559       O563   2.438       .  S
Zr559       O564   2.412       .  S
O560        C565   1.287       .  A
O561        H578   0.990       .  S
O561        H593   0.990       .  S
O562        H579   0.990       .  S
O563        H583   0.990       .  S
O563        H592   0.990       .  S
O564        C565   1.280       .  A
C565       C1349   1.490       .  S
O566        H585   0.990       .  S
O566        H589   0.990       .  S
O567        H581   0.990       .  S
O567        H588   0.990       .  S
O568        C572   1.288       .  A
O569        C572   1.282       .  A
O570        H580   0.990       .  S
O571        H584   0.990       .  S
C572       C1450   1.491       .  S
Zr595       O596   2.441       .  S
Zr595       O597   2.462       .  S
Zr595       O598   2.464       .  S
Zr595       O601   2.444       .  S
Zr595       O603   2.382       .  S
Zr595       O604   2.389       .  S
Zr595       O605   2.411       .  S
Zr595       O606   2.407       .  S
O596        H652   0.990       .  S
O596        H660   0.991       .  S
O597        C617   1.289       .  A
O598        C619   1.289       .  A
O599       Zr609   2.420       .  S
O599        C618   1.283       .  A
O600       Zr608   2.417       .  S
O600        C619   1.281       .  A
O601        C618   1.288       .  A
O602       Zr610   2.400       .  S
O602        C617   1.278       .  A
O603       Zr608   2.392       .  S
O603       Zr610   2.382       .  S
O604       Zr609   2.397       .  S
O604       Zr610   2.375       .  S
O604        H639   0.966       .  S
O605       Zr608   2.393       .  S
O605       Zr625   2.383       .  S
O605        H642   0.965       .  S
O606       Zr609   2.385       .  S
O606       Zr625   2.384       .  S
Zr607       O632   2.441       .  S
Zr607       O626   2.466       .  S
Zr607       O634   2.454       .  S
Zr607       O622   2.458       .  S
Zr607       O613   2.404       .  S
Zr607       O614   2.416       .  S
Zr607       O615   2.382       .  S
Zr607       O616   2.386       .  S
Zr608       O627   2.437       .  S
Zr608       O620   2.435       .  S
Zr608       O621   2.405       .  S
Zr608       O614   2.403       .  S
Zr608       O615   2.395       .  S
Zr609       O611   2.433       .  S
Zr609       O633   2.436       .  S
Zr609       O635   2.427       .  S
Zr609       O613   2.387       .  S
Zr609       O616   2.394       .  S
Zr610       O636   2.436       .  S
Zr610       O637   2.435       .  S
Zr610       O612   2.437       .  S
Zr610       O613   2.385       .  S
Zr610       O614   2.390       .  S
O611        H648   0.990       .  S
O612        H643   0.991       .  S
O612        H657   0.990       .  S
O614        H640   0.965       .  S
O615       Zr625   2.381       .  S
O616       Zr625   2.380       .  S
O616        H641   0.966       .  S
C617       C1354   1.495       .  S
C618       C1997   1.487       .  S
C619       C1301   1.497       .  S
O620        H656   0.990       .  S
O621        C623   1.280       .  A
O622        C623   1.288       .  A
C623       C1325   1.478       .  S
O624       Zr625   2.437       .  S
O624        H653   0.990       .  S
Zr625       O628   2.434       .  S
Zr625       O629   2.438       .  S
Zr625       O630   2.403       .  S
O626        C631   1.289   1_556  A
O627        H644   0.990       .  S
O627        H659   0.990       .  S
O628        H645   0.989       .  S
O629        H649   0.990       .  S
O629        H658   0.990       .  S
O630        C631   1.278   1_556  A
C631       C1378   1.484       .  S
O632        H651   0.991       .  S
O632        H655   0.990       .  S
O633        H647   0.990       .  S
O633        H654   0.990       .  S
O634        C638   1.289       .  A
O635        C638   1.284       .  A
O636        H646   0.990       .  S
O637        H650   0.990       .  S
C638       C1541   1.485       .  S
Zr661       O662   2.441       .  S
Zr661       O663   2.450       .  S
Zr661       O664   2.458       .  S
Zr661       O667   2.449       .  S
Zr661       O669   2.388       .  S
Zr661       O670   2.385       .  S
Zr661       O671   2.416       .  S
Zr661       O672   2.404       .  S
O662        H718   0.990       .  S
O662        H726   0.989       .  S
O663        C683   1.284       .  A
O664        C685   1.288       .  A
O665       Zr675   2.416       .  S
O665        C684   1.282       .  A
O666       Zr674   2.420       .  S
O666        C685   1.282       .  A
O667        C684   1.287       .  A
O668       Zr676   2.409       .  S
O668        C683   1.278       .  A
O669       Zr674   2.400       .  S
O669       Zr676   2.382       .  S
O670       Zr675   2.395       .  S
O670       Zr676   2.374       .  S
O670        H705   0.966       .  S
O671       Zr674   2.401       .  S
O671       Zr691   2.382       .  S
O671        H708   0.964       .  S
O672       Zr675   2.386       .  S
O672       Zr691   2.388       .  S
Zr673       O698   2.441       .  S
Zr673       O692   2.464       .  S
Zr673       O700   2.456       .  S
Zr673       O688   2.465       .  S
Zr673       O679   2.405       .  S
Zr673       O680   2.417       .  S
Zr673       O681   2.382       .  S
Zr673       O682   2.386       .  S
Zr674       O693   2.436       .  S
Zr674       O686   2.435       .  S
Zr674       O687   2.429       .  S
Zr674       O680   2.399       .  S
Zr674       O681   2.395       .  S
Zr675       O677   2.435       .  S
Zr675       O699   2.439       .  S
Zr675       O701   2.414       .  S
Zr675       O679   2.389       .  S
Zr675       O682   2.392       .  S
Zr676       O702   2.435       .  S
Zr676       O703   2.432       .  S
Zr676       O678   2.437       .  S
Zr676       O679   2.387       .  S
Zr676       O680   2.391       .  S
O677        H714   0.990       .  S
O678        H709   0.991       .  S
O678        H723   0.989       .  S
O680        H706   0.965       .  S
O681       Zr691   2.385       .  S
O682       Zr691   2.379       .  S
O682        H707   0.966       .  S
C683       C1205   1.479   1_554  S
C684       C1565   1.483       .  S
C685       C1282   1.484       .  S
O686        H722   0.990       .  S
O687        C689   1.284       .  A
O688        C689   1.289       .  A
C689       C1253   1.496       .  S
O690       Zr691   2.439       .  S
O690        H719   0.990       .  S
Zr691       O694   2.437       .  S
Zr691       O695   2.439       .  S
Zr691       O696   2.402       .  S
O692        C697   1.289       .  A
O693        H710   0.990       .  S
O693        H725   0.990       .  S
O694        H711   0.990       .  S
O695        H715   0.990       .  S
O695        H724   0.990       .  S
O696        C697   1.279       .  A
C697       C1229   1.495       .  S
O698        H717   0.991       .  S
O698        H721   0.990       .  S
O699        H713   0.990       .  S
O699        H720   0.990       .  S
O700        C704   1.289       .  A
O701        C704   1.281       .  A
O702        H712   0.990       .  S
O703        H716   0.990       .  S
C704       C2117   1.482       .  S
Zr727       O728   2.441       .  S
Zr727       O729   2.455       .  S
Zr727       O730   2.450       .  S
Zr727       O733   2.437       .  S
Zr727       O735   2.379       .  S
Zr727       O736   2.385       .  S
Zr727       O737   2.409       .  S
Zr727       O738   2.402       .  S
O728        H784   0.990       .  S
O728        H792   0.991       .  S
O729        C749   1.287       .  A
O730        C751   1.286       .  A
O731       Zr741   2.437       .  S
O731        C750   1.285       .  A
O732       Zr740   2.421       .  S
O732        C751   1.282       .  A
O733        C750   1.284       .  A
O734       Zr742   2.404       .  S
O734        C749   1.279       .  A
O735       Zr740   2.397       .  S
O735       Zr742   2.379       .  S
O736       Zr741   2.396       .  S
O736       Zr742   2.380       .  S
O736        H771   0.966       .  S
O737       Zr740   2.395       .  S
O737       Zr757   2.388       .  S
O737        H774   0.964       .  S
O738       Zr741   2.383       .  S
O738       Zr757   2.385       .  S
Zr739       O764   2.442       .  S
Zr739       O758   2.450       .  S
Zr739       O766   2.450       .  S
Zr739       O754   2.465       .  S
Zr739       O745   2.403       .  S
Zr739       O746   2.412       .  S
Zr739       O747   2.381       .  S
Zr739       O748   2.392       .  S
Zr740       O759   2.436       .  S
Zr740       O752   2.435       .  S
Zr740       O753   2.413       .  S
Zr740       O746   2.399       .  S
Zr740       O747   2.393       .  S
Zr741       O743   2.438       .  S
Zr741       O765   2.436       .  S
Zr741       O767   2.428       .  S
Zr741       O745   2.389       .  S
Zr741       O748   2.399       .  S
Zr742       O768   2.434       .  S
Zr742       O769   2.436       .  S
Zr742       O744   2.436       .  S
Zr742       O745   2.385       .  S
Zr742       O746   2.385       .  S
O743        H780   0.990       .  S
O744        H775   0.990       .  S
O744        H789   0.990       .  S
O746        H772   0.964       .  S
O747       Zr757   2.384       .  S
O748       Zr757   2.387       .  S
O748        H773   0.966       .  S
C749       C1234   1.491       .  S
C750       C1474   1.476       .  S
C751       C1181   1.475       .  S
O752        H788   0.990       .  S
O753        C755   1.280       .  A
O754        C755   1.289       .  A
C755       C1157   1.496       .  S
O756       Zr757   2.441       .  S
O756        H785   0.990       .  S
Zr757       O760   2.438       .  S
Zr757       O761   2.440       .  S
Zr757       O762   2.403       .  S
O758        C763   1.285       .  A
O759        H776   0.990       .  S
O759        H791   0.989       .  S
O760        H777   0.990       .  S
O761        H781   0.990       .  S
O761        H790   0.990       .  S
O762        C763   1.279       .  A
C763       C1210   1.477       .  S
O764        H783   0.991       .  S
O764        H787   0.990       .  S
O765        H779   0.990       .  S
O765        H786   0.990       .  S
O766        C770   1.288       .  A
O767        C770   1.284       .  A
O768        H778   0.990       .  S
O769        H782   0.990       .  S
C770       C1973   1.487       .  S
Zr793       O794   2.441       .  S
Zr793       O795   2.457       .  S
Zr793       O796   2.458       .  S
Zr793       O799   2.450       .  S
Zr793       O801   2.381       .  S
Zr793       O802   2.388       .  S
Zr793       O803   2.417   1_554  S
Zr793       O804   2.405       .  S
O794        H850   0.990       .  S
O794        H858   0.990       .  S
O795        C815   1.287       .  A
O796        C817   1.287       .  A
O797       Zr807   2.435       .  S
O797        C816   1.285       .  A
O798       Zr806   2.415       .  S
O798        C817   1.281       .  A
O799        C816   1.287       .  A
O800       Zr808   2.404       .  S
O800        C815   1.278       .  A
O801       Zr806   2.394       .  S
O801       Zr808   2.382       .  S
O802       Zr807   2.396       .  S
O802       Zr808   2.381       .  S
O802        H837   0.965       .  S
O803       Zr806   2.399   1_556  S
O803       Zr823   2.397       .  S
O803        H840   0.964       .  S
O804       Zr807   2.388       .  S
O804       Zr823   2.390   1_554  S
Zr805       O830   2.442       .  S
Zr805       O824   2.443       .  S
Zr805       O832   2.426       .  S
Zr805       O820   2.444       .  S
Zr805       O811   2.404   1_556  S
Zr805       O812   2.406   1_556  S
Zr805       O813   2.375       .  S
Zr805       O814   2.385       .  S
Zr806       O825   2.434   1_554  S
Zr806       O818   2.435       .  S
Zr806       O819   2.411   1_554  S
Zr806       O812   2.397       .  S
Zr806       O813   2.391   1_554  S
Zr807       O809   2.435   1_554  S
Zr807       O831   2.439       .  S
Zr807       O833   2.433   1_554  S
Zr807       O811   2.387       .  S
Zr807       O814   2.400   1_554  S
Zr808       O834   2.436       .  S
Zr808       O835   2.437       .  S
Zr808       O810   2.435       .  S
Zr808       O811   2.387       .  S
Zr808       O812   2.385       .  S
O809        H846   0.990       .  S
O810        H841   0.990       .  S
O810        H855   0.990       .  S
O812        H838   0.965       .  S
O813       Zr823   2.375       .  S
O814       Zr823   2.379       .  S
O814        H839   0.967       .  S
C815       C1133   1.484       .  S
C816       C1930   1.483       .  S
C817       C1277   1.472       .  S
O818        H854   0.990       .  S
O819        C821   1.281       .  A
O820        C821   1.285       .  A
C821       C1330   1.482       .  S
O822       Zr823   2.439       .  S
O822        H851   0.990       .  S
Zr823       O826   2.437       .  S
Zr823       O827   2.439       .  S
Zr823       O828   2.423       .  S
O824        C829   1.285       .  A
O825        H842   0.990       .  S
O825        H857   0.989       .  S
O826        H843   0.990       .  S
O827        H847   0.990       .  S
O827        H856   0.990       .  S
O828        C829   1.282       .  A
C829       C1109   1.488       .  S
O830        H849   0.990       .  S
O830        H853   0.990       .  S
O831        H845   0.990       .  S
O831        H852   0.990       .  S
O832        C836   1.283       .  A
O833        C836   1.285       .  A
O834        H844   0.990       .  S
O835        H848   0.990       .  S
C836       C1618   1.481       .  S
Zr859       O860   2.440       .  S
Zr859       O861   2.463       .  S
Zr859       O862   2.453       .  S
Zr859       O865   2.452       .  S
Zr859       O867   2.380       .  S
Zr859       O868   2.390       .  S
Zr859       O869   2.417       .  S
Zr859       O870   2.402       .  S
O860        H916   0.990       .  S
O860        H924   0.991       .  S
O861        C881   1.288       .  A
O862        C883   1.287       .  A
O863       Zr873   2.425       .  S
O863        C882   1.284       .  A
O864       Zr872   2.425       .  S
O864        C883   1.283       .  A
O865        C882   1.288       .  A
O866       Zr874   2.403       .  S
O866        C881   1.278       .  A
O867       Zr872   2.396       .  S
O867       Zr874   2.383       .  S
O868       Zr873   2.399       .  S
O868       Zr874   2.384       .  S
O868        H903   0.965       .  S
O869       Zr872   2.394       .  S
O869       Zr889   2.384       .  S
O869        H906   0.962       .  S
O870       Zr873   2.379       .  S
O870       Zr889   2.387       .  S
Zr871       O896   2.442       .  S
Zr871       O890   2.450       .  S
Zr871       O898   2.438       .  S
Zr871       O886   2.462       .  S
Zr871       O877   2.404       .  S
Zr871       O878   2.414       .  S
Zr871       O879   2.380       .  S
Zr871       O880   2.388       .  S
Zr872       O891   2.436       .  S
Zr872       O884   2.434       .  S
Zr872       O885   2.412       .  S
Zr872       O878   2.400       .  S
Zr872       O879   2.395       .  S
Zr873       O875   2.434       .  S
Zr873       O897   2.436       .  S
Zr873       O899   2.417       .  S
Zr873       O877   2.386       .  S
Zr873       O880   2.396       .  S
Zr874       O900   2.438       .  S
Zr874       O901   2.437       .  S
Zr874       O876   2.438       .  S
Zr874       O877   2.386       .  S
Zr874       O878   2.385       .  S
O875        H912   0.990       .  S
O876        H907   0.990       .  S
O876        H921   0.990       .  S
O878        H904   0.963       .  S
O879       Zr889   2.381       .  S
O880       Zr889   2.379       .  S
O880        H905   0.967       .  S
C881       C1114   1.494       .  S
C882       C1805   1.486       .  S
C883       C1186   1.478       .  S
O884        H920   0.990       .  S
O885        C887   1.282       .  A
O886        C887   1.288       .  A
C887       C1426   1.481       .  S
O888       Zr889   2.439       .  S
O888        H917   0.990       .  S
Zr889       O892   2.436       .  S
Zr889       O893   2.438       .  S
Zr889       O894   2.413       .  S
O890        C895   1.285       .  A
O891        H908   0.990       .  S
O891        H923   0.990       .  S
O892        H909   0.990       .  S
O893        H913   0.989       .  S
O893        H922   0.990       .  S
O894        C895   1.280       .  A
C895       C1138   1.483       .  S
O896        H915   0.990       .  S
O896        H919   0.990       .  S
O897        H911   0.990       .  S
O897        H918   0.990       .  S
O898        C902   1.286       .  A
O899        C902   1.282       .  A
O900        H910   0.990       .  S
O901        H914   0.990       .  S
C902       C1738   1.479       .  S
Zr925       O926   2.441       .  S
Zr925       O927   2.461       .  S
Zr925       O928   2.461   1_455  S
Zr925       O931   2.452       .  S
Zr925       O933   2.381   1_455  S
Zr925       O934   2.386       .  S
Zr925       O935   2.416   1_455  S
Zr925       O936   2.407       .  S
O926        H982   0.990   1_455  S
O926        H990   0.990   1_455  S
O927        C947   1.288       .  A
O928        C949   1.288       .  A
O929       Zr939   2.424       .  S
O929        C948   1.284       .  A
O930       Zr938   2.414       .  S
O930        C949   1.281       .  A
O931        C948   1.288       .  A
O932       Zr940   2.412       .  S
O932        C947   1.279       .  A
O933       Zr938   2.398       .  S
O933       Zr940   2.380   1_655  S
O934       Zr939   2.393       .  S
O934       Zr940   2.379       .  S
O934        H969   0.966       .  S
O935       Zr938   2.402       .  S
O935       Zr955   2.396       .  S
O935        H972   0.964       .  S
O936       Zr939   2.390       .  S
O936       Zr955   2.390   1_455  S
Zr937       O962   2.441   1_655  S
Zr937       O956   2.452       .  S
Zr937       O964   2.456   1_655  S
Zr937       O952   2.470       .  S
Zr937       O943   2.401   1_655  S
Zr937       O944   2.415       .  S
Zr937       O945   2.384       .  S
Zr937       O946   2.389   1_655  S
Zr938       O957   2.437       .  S
Zr938       O950   2.434       .  S
Zr938       O951   2.414       .  S
Zr938       O944   2.402       .  S
Zr938       O945   2.394       .  S
Zr939       O941   2.434       .  S
Zr939       O963   2.437       .  S
Zr939       O965   2.422       .  S
Zr939       O943   2.385       .  S
Zr939       O946   2.392       .  S
Zr940       O966   2.434       .  S
Zr940       O967   2.436       .  S
Zr940       O942   2.437   1_455  S
Zr940       O943   2.381       .  S
Zr940       O944   2.394   1_455  S
O941        H978   0.989       .  S
O942        H973   0.990       .  S
O942        H987   0.990       .  S
O944        H970   0.964       .  S
O945       Zr955   2.382       .  S
O946       Zr955   2.378   1_455  S
O946        H971   0.964       .  S
C947       C1061   1.487       .  S
C948       C1714   1.490       .  S
C949       C1397   1.487       .  S
O950        H986   0.990       .  S
O951        C953   1.282       .  A
O952        C953   1.290       .  A
C953       C1258   1.494       .  S
O954       Zr955   2.439       .  S
O954        H983   0.991       .  S
Zr955       O958   2.437       .  S
Zr955       O959   2.440   1_655  S
Zr955       O960   2.407       .  S
O956        C961   1.286       .  A
O957        H974   0.990       .  S
O957        H989   0.990       .  S
O958        H975   0.990       .  S
O959        H979   0.990       .  S
O959        H988   0.990       .  S
O960        C961   1.279       .  A
C961       C1085   1.491       .  S
O962        H981   0.990   1_455  S
O962        H985   0.989   1_455  S
O963        H977   0.990       .  S
O963        H984   0.990       .  S
O964        C968   1.289       .  A
O965        C968   1.283       .  A
O966        H976   0.990       .  S
O967        H980   0.991       .  S
C968       C1901   1.492       .  S
Zr991       O992   2.441   1_655  S
Zr991       O993   2.461       .  S
Zr991       O994   2.465       .  S
Zr991       O997   2.449   1_655  S
Zr991       O999   2.382       .  S
Zr991      O1000   2.386   1_655  S
Zr991      O1001   2.414       .  S
Zr991      O1002   2.407   1_655  S
O992       H1048   0.990   1_455  S
O992       H1056   0.990   1_455  S
O993       C1013   1.288       .  A
O994       C1015   1.289       .  A
O995      Zr1005   2.432       .  S
O995       C1014   1.285       .  A
O996      Zr1004   2.414       .  S
O996       C1015   1.282       .  A
O997       C1014   1.287       .  A
O998      Zr1006   2.401       .  S
O998       C1013   1.277       .  A
O999      Zr1004   2.402       .  S
O999      Zr1006   2.385       .  S
O1000     Zr1005   2.393       .  S
O1000     Zr1006   2.377   1_455  S
O1000      H1035   0.966       .  S
O1001     Zr1004   2.394       .  S
O1001     Zr1021   2.395   1_655  S
O1001      H1038   0.965       .  S
O1002     Zr1005   2.383       .  S
O1002     Zr1021   2.391       .  S
Zr1003     O1028   2.438   1_655  S
Zr1003     O1022   2.453   1_655  S
Zr1003     O1030   2.440   1_655  S
Zr1003     O1018   2.470       .  S
Zr1003     O1009   2.407   1_655  S
Zr1003     O1010   2.411       .  S
Zr1003     O1011   2.382       .  S
Zr1003     O1012   2.390   1_655  S
Zr1004     O1023   2.435       .  S
Zr1004     O1016   2.433       .  S
Zr1004     O1017   2.418       .  S
Zr1004     O1010   2.400       .  S
Zr1004     O1011   2.391       .  S
Zr1005     O1007   2.435       .  S
Zr1005     O1029   2.439       .  S
Zr1005     O1031   2.415       .  S
Zr1005     O1009   2.389       .  S
Zr1005     O1012   2.396       .  S
Zr1006     O1032   2.436   1_655  S
Zr1006     O1033   2.436       .  S
Zr1006     O1008   2.436       .  S
Zr1006     O1009   2.386   1_655  S
Zr1006     O1010   2.379       .  S
O1007      H1044   0.990       .  S
O1008      H1039   0.990       .  S
O1008      H1053   0.990       .  S
O1010      H1036   0.964       .  S
O1011     Zr1021   2.385   1_655  S
O1012     Zr1021   2.379       .  S
O1012      H1037   0.965       .  S
C1013      C1090   1.482       .  S
C1014      C1589   1.484       .  S
C1015      C1306   1.488       .  S
O1016      H1052   0.990       .  S
O1017      C1019   1.284       .  A
O1018      C1019   1.289       .  A
C1019      C1162   1.496       .  S
O1020     Zr1021   2.440       .  S
O1020      H1049   0.990       .  S
Zr1021     O1024   2.437   1_455  S
Zr1021     O1025   2.440       .  S
Zr1021     O1026   2.422       .  S
O1022      C1027   1.287       .  A
O1023      H1040   0.990       .  S
O1023      H1055   0.990       .  S
O1024      H1041   0.990       .  S
O1025      H1045   0.990       .  S
O1025      H1054   0.990       .  S
O1026      C1027   1.282       .  A
C1027      C1066   1.489       .  S
O1028      H1047   0.990   1_455  S
O1028      H1051   0.989   1_455  S
O1029      H1043   0.990       .  S
O1029      H1050   0.990       .  S
O1030      C1034   1.285       .  A
O1031      C1034   1.283       .  A
O1032      H1042   0.990       .  S
O1033      H1046   0.990   1_655  S
C1034      C1781   1.482       .  S
C1057      C1058   1.411   1_655  A
C1057      C1062   1.404       .  A
C1057      C1071   1.443       .  S
C1058      C1063   1.491       .  S
C1058      C1059   1.402       .  A
C1059      C1060   1.405       .  A
C1059      H1078   1.085       .  S
C1060      C1061   1.417       .  A
C1060      C1072   1.445       .  S
C1061      C1062   1.405   1_455  A
C1062      H1077   1.085       .  S
C1063      C1064   1.405   1_455  A
C1063      C1068   1.409       .  A
C1064      C1065   1.406       .  A
C1064      H1079   1.085       .  S
C1065      C1066   1.414   1_655  A
C1065      C1069   1.443       .  S
C1066      C1067   1.407       .  A
C1067      C1068   1.403       .  A
C1067      H1080   1.085       .  S
C1068      C1070   1.443       .  S
C1069      N1073   1.157       .  T
C1070      N1074   1.157       .  T
C1071      N1076   1.157       .  T
C1072      N1075   1.157       .  T
C1081      C1082   1.409   1_455  A
C1081      C1086   1.405       .  A
C1081      C1095   1.444       .  S
C1082      C1087   1.481   1_554  S
C1082      C1083   1.396       .  A
C1083      C1084   1.397       .  A
C1083      H1102   1.085       .  S
C1084      C1085   1.420       .  A
C1084      C1096   1.444       .  S
C1085      C1086   1.409   1_655  A
C1086      H1101   1.084       .  S
C1087      C1088   1.399       .  A
C1087      C1092   1.409   1_655  A
C1088      C1089   1.400       .  A
C1088      H1103   1.085       .  S
C1089      C1090   1.417       .  A
C1089      C1093   1.444       .  S
C1090      C1091   1.405   1_655  A
C1091      C1092   1.402       .  A
C1091      H1104   1.085       .  S
C1092      C1094   1.444       .  S
C1093      N1097   1.157       .  T
C1094      N1098   1.157       .  T
C1095      N1100   1.157       .  T
C1096      N1099   1.157       .  T
C1105      C1106   1.409       .  A
C1105      C1110   1.400       .  A
C1105      C1119   1.444       .  S
C1106      C1111   1.490       .  S
C1106      C1107   1.405       .  A
C1107      C1108   1.406       .  A
C1107      H1126   1.085       .  S
C1108      C1109   1.415       .  A
C1108      C1120   1.443       .  S
C1109      C1110   1.406       .  A
C1110      H1125   1.085       .  S
C1111      C1112   1.404       .  A
C1111      C1116   1.408       .  A
C1112      C1113   1.403       .  A
C1112      H1127   1.085       .  S
C1113      C1114   1.415       .  A
C1113      C1117   1.443       .  S
C1114      C1115   1.412       .  A
C1115      C1116   1.403       .  A
C1115      H1128   1.085       .  S
C1116      C1118   1.445       .  S
C1117      N1121   1.157       .  T
C1118      N1122   1.158       .  T
C1119      N1124   1.157       .  T
C1120      N1123   1.157       .  T
C1129      C1130   1.410       .  A
C1129      C1134   1.404       .  A
C1129      C1143   1.443       .  S
C1130      C1135   1.481       .  S
C1130      C1131   1.398       .  A
C1131      C1132   1.398       .  A
C1131      H1150   1.085       .  S
C1132      C1133   1.417       .  A
C1132      C1144   1.443       .  S
C1133      C1134   1.406       .  A
C1134      H1149   1.085       .  S
C1135      C1136   1.399       .  A
C1135      C1140   1.410       .  A
C1136      C1137   1.399       .  A
C1136      H1151   1.085       .  S
C1137      C1138   1.415       .  A
C1137      C1141   1.443       .  S
C1138      C1139   1.406       .  A
C1139      C1140   1.404       .  A
C1139      H1152   1.085       .  S
C1140      C1142   1.444       .  S
C1141      N1145   1.157       .  T
C1142      N1146   1.157       .  T
C1143      N1148   1.157       .  T
C1144      N1147   1.157       .  T
C1153      C1154   1.414       .  A
C1153      C1158   1.405       .  A
C1153      C1167   1.444       .  S
C1154      C1159   1.496       .  S
C1154      C1155   1.402       .  A
C1155      C1156   1.397       .  A
C1155      H1174   1.085       .  S
C1156      C1157   1.420       .  A
C1156      C1168   1.444       .  S
C1157      C1158   1.409       .  A
C1158      H1173   1.084       .  S
C1159      C1160   1.406       .  A
C1159      C1164   1.411       .  A
C1160      C1161   1.407       .  A
C1160      H1175   1.084       .  S
C1161      C1162   1.417       .  A
C1161      C1165   1.442       .  S
C1162      C1163   1.410       .  A
C1163      C1164   1.396       .  A
C1163      H1176   1.084       .  S
C1164      C1166   1.446       .  S
C1165      N1169   1.157       .  T
C1166      N1170   1.157       .  T
C1167      N1172   1.157       .  T
C1168      N1171   1.157       .  T
C1177      C1178   1.413       .  A
C1177      C1182   1.404       .  A
C1177      C1191   1.444       .  S
C1178      C1183   1.487       .  S
C1178      C1179   1.402       .  A
C1179      C1180   1.399       .  A
C1179      H1198   1.085       .  S
C1180      C1181   1.412       .  A
C1180      C1192   1.445       .  S
C1181      C1182   1.403       .  A
C1182      H1197   1.085       .  S
C1183      C1184   1.402       .  A
C1183      C1188   1.413       .  A
C1184      C1185   1.399       .  A
C1184      H1199   1.085       .  S
C1185      C1186   1.414       .  A
C1185      C1189   1.445       .  S
C1186      C1187   1.404       .  A
C1187      C1188   1.403       .  A
C1187      H1200   1.085       .  S
C1188      C1190   1.444       .  S
C1189      N1193   1.157       .  T
C1190      N1194   1.157       .  T
C1191      N1196   1.157       .  T
C1192      N1195   1.157       .  T
C1201      C1202   1.413       .  A
C1201      C1206   1.405       .  A
C1201      C1215   1.444       .  S
C1202      C1207   1.483       .  S
C1202      C1203   1.400       .  A
C1203      C1204   1.396       .  A
C1203      H1222   1.085       .  S
C1204      C1205   1.412       .  A
C1204      C1216   1.443       .  S
C1205      C1206   1.406       .  A
C1206      H1221   1.085       .  S
C1207      C1208   1.402       .  A
C1207      C1212   1.412       .  A
C1208      C1209   1.397       .  A
C1208      H1223   1.085       .  S
C1209      C1210   1.412       .  A
C1209      C1213   1.445       .  S
C1210      C1211   1.404       .  A
C1211      C1212   1.404       .  A
C1211      H1224   1.085       .  S
C1212      C1214   1.443       .  S
C1213      N1217   1.157       .  T
C1214      N1218   1.157       .  T
C1215      N1220   1.157       .  T
C1216      N1219   1.157       .  T
C1225      C1226   1.409       .  A
C1225      C1230   1.400       .  A
C1225      C1239   1.445       .  S
C1226      C1231   1.494       .  S
C1226      C1227   1.407       .  A
C1227      C1228   1.406       .  A
C1227      H1246   1.085       .  S
C1228      C1229   1.415       .  A
C1228      C1240   1.443       .  S
C1229      C1230   1.410       .  A
C1230      H1245   1.085       .  S
C1231      C1232   1.406       .  A
C1231      C1236   1.410       .  A
C1232      C1233   1.405       .  A
C1232      H1247   1.084       .  S
C1233      C1234   1.415       .  A
C1233      C1237   1.444       .  S
C1234      C1235   1.409       .  A
C1235      C1236   1.400       .  A
C1235      H1248   1.085       .  S
C1236      C1238   1.445       .  S
C1237      N1241   1.157       .  T
C1238      N1242   1.157       .  T
C1239      N1244   1.157       .  T
C1240      N1243   1.157       .  T
C1249      C1250   1.412       .  A
C1249      C1254   1.407       .  A
C1249      C1263   1.444       .  S
C1250      C1255   1.498       .  S
C1250      C1251   1.404       .  A
C1251      C1252   1.403       .  A
C1251      H1270   1.085       .  S
C1252      C1253   1.417       .  A
C1252      C1264   1.444       .  S
C1253      C1254   1.409       .  A
C1254      H1269   1.084       .  S
C1255      C1256   1.409       .  A
C1255      C1260   1.411       .  A
C1256      C1257   1.409       .  A
C1256      H1271   1.084       .  S
C1257      C1258   1.414       .  A
C1257      C1261   1.443       .  S
C1258      C1259   1.408       .  A
C1259      C1260   1.399       .  A
C1259      H1272   1.085       .  S
C1260      C1262   1.444       .  S
C1261      N1265   1.157       .  T
C1262      N1266   1.157       .  T
C1263      N1268   1.157       .  T
C1264      N1267   1.157       .  T
C1273      C1274   1.411       .  A
C1273      C1278   1.404       .  A
C1273      C1287   1.444       .  S
C1274      C1279   1.478       .  S
C1274      C1275   1.398       .  A
C1275      C1276   1.396       .  A
C1275      H1294   1.085       .  S
C1276      C1277   1.412       .  A
C1276      C1288   1.444   1_554  S
C1277      C1278   1.403       .  A
C1278      H1293   1.084       .  S
C1279      C1280   1.399       .  A
C1279      C1284   1.407       .  A
C1280      C1281   1.400       .  A
C1280      H1295   1.085       .  S
C1281      C1282   1.417       .  A
C1281      C1285   1.443       .  S
C1282      C1283   1.408       .  A
C1283      C1284   1.400       .  A
C1283      H1296   1.085       .  S
C1284      C1286   1.444       .  S
C1285      N1289   1.157       .  T
C1286      N1290   1.157       .  T
C1287      N1292   1.157       .  T
C1288      N1291   1.157       .  T
C1297      C1298   1.408       .  A
C1297      C1302   1.405       .  A
C1297      C1311   1.443       .  S
C1298      C1303   1.487       .  S
C1298      C1299   1.399       .  A
C1299      C1300   1.400       .  A
C1299      H1318   1.085       .  S
C1300      C1301   1.422       .  A
C1300      C1312   1.445       .  S
C1301      C1302   1.410       .  A
C1302      H1317   1.084       .  S
C1303      C1304   1.405       .  A
C1303      C1308   1.407       .  A
C1304      C1305   1.406       .  A
C1304      H1319   1.084       .  S
C1305      C1306   1.413       .  A
C1305      C1309   1.443       .  S
C1306      C1307   1.408       .  A
C1307      C1308   1.399       .  A
C1307      H1320   1.085       .  S
C1308      C1310   1.444       .  S
C1309      N1313   1.157       .  T
C1310      N1314   1.157       .  T
C1311      N1316   1.157       .  T
C1312      N1315   1.157       .  T
C1321      C1322   1.407       .  A
C1321      C1326   1.396       .  A
C1321      C1335   1.445       .  S
C1322      C1327   1.480       .  S
C1322      C1323   1.404       .  A
C1323      C1324   1.402       .  A
C1323      H1342   1.085       .  S
C1324      C1325   1.412       .  A
C1324      C1336   1.444       .  S
C1325      C1326   1.407       .  A
C1326      H1341   1.085       .  S
C1327      C1328   1.400       .  A
C1327      C1332   1.408       .  A
C1328      C1329   1.397       .  A
C1328      H1343   1.085       .  S
C1329      C1330   1.416       .  A
C1329      C1333   1.444       .  S
C1330      C1331   1.407       .  A
C1331      C1332   1.400       .  A
C1331      H1344   1.084       .  S
C1332      C1334   1.444       .  S
C1333      N1337   1.157       .  T
C1334      N1338   1.157       .  T
C1335      N1340   1.157       .  T
C1336      N1339   1.157   1_556  T
C1345      C1346   1.411       .  A
C1345      C1350   1.401       .  A
C1345      C1359   1.445       .  S
C1346      C1351   1.496       .  S
C1346      C1347   1.407       .  A
C1347      C1348   1.404       .  A
C1347      H1366   1.085       .  S
C1348      C1349   1.413       .  A
C1348      C1360   1.444       .  S
C1349      C1350   1.408       .  A
C1350      H1365   1.085       .  S
C1351      C1352   1.408       .  A
C1351      C1356   1.410       .  A
C1352      C1353   1.407       .  A
C1352      H1367   1.084       .  S
C1353      C1354   1.415       .  A
C1353      C1357   1.443       .  S
C1354      C1355   1.411       .  A
C1355      C1356   1.399       .  A
C1355      H1368   1.085       .  S
C1356      C1358   1.445       .  S
C1357      N1361   1.157       .  T
C1358      N1362   1.157       .  T
C1359      N1364   1.157       .  T
C1360      N1363   1.157       .  T
C1369      C1370   1.410       .  A
C1369      C1374   1.406       .  A
C1369      C1383   1.443       .  S
C1370      C1375   1.485       .  S
C1370      C1371   1.396       .  A
C1371      C1372   1.399       .  A
C1371      H1390   1.085       .  S
C1372      C1373   1.422       .  A
C1372      C1384   1.443       .  S
C1373      C1374   1.409       .  A
C1374      H1389   1.084       .  S
C1375      C1376   1.398       .  A
C1375      C1380   1.412       .  A
C1376      C1377   1.400       .  A
C1376      H1391   1.085       .  S
C1377      C1378   1.416       .  A
C1377      C1381   1.444       .  S
C1378      C1379   1.405       .  A
C1379      C1380   1.406       .  A
C1379      H1392   1.084       .  S
C1380      C1382   1.444       .  S
C1381      N1385   1.157       .  T
C1382      N1386   1.157       .  T
C1383      N1388   1.157       .  T
C1384      N1387   1.157       .  T
C1393      C1394   1.411       .  A
C1393      C1398   1.402       .  A
C1393      C1407   1.444       .  S
C1394      C1399   1.489       .  S
C1394      C1395   1.402       .  A
C1395      C1396   1.400       .  A
C1395      H1414   1.085       .  S
C1396      C1397   1.417       .  A
C1396      C1408   1.444       .  S
C1397      C1398   1.406       .  A
C1398      H1413   1.085       .  S
C1399      C1400   1.406       .  A
C1399      C1404   1.410       .  A
C1400      C1401   1.403       .  A
C1400      H1415   1.085       .  S
C1401      C1402   1.412       .  A
C1401      C1405   1.444       .  S
C1402      C1403   1.407       .  A
C1403      C1404   1.398       .  A
C1403      H1416   1.085       .  S
C1404      C1406   1.444       .  S
C1405      N1409   1.157       .  T
C1406      N1410   1.157       .  T
C1407      N1412   1.157       .  T
C1408      N1411   1.157       .  T
C1417      C1418   1.410       .  A
C1417      C1422   1.400       .  A
C1417      C1431   1.444       .  S
C1418      C1423   1.484       .  S
C1418      C1419   1.403       .  A
C1419      C1420   1.397       .  A
C1419      H1438   1.085       .  S
C1420      C1421   1.413       .  A
C1420      C1432   1.444       .  S
C1421      C1422   1.405       .  A
C1422      H1437   1.085       .  S
C1423      C1424   1.406       .  A
C1423      C1428   1.409       .  A
C1424      C1425   1.404       .  A
C1424      H1439   1.085       .  S
C1425      C1426   1.412       .  A
C1425      C1429   1.443       .  S
C1426      C1427   1.406       .  A
C1427      C1428   1.395       .  A
C1427      H1440   1.085       .  S
C1428      C1430   1.445       .  S
C1429      N1433   1.157       .  T
C1430      N1434   1.157       .  T
C1431      N1436   1.157       .  T
C1432      N1435   1.157       .  T
C1441      C1442   1.408       .  A
C1441      C1446   1.401       .  A
C1441      C1455   1.444       .  S
C1442      C1447   1.482       .  S
C1442      C1443   1.399       .  A
C1443      C1444   1.400       .  A
C1443      H1462   1.085       .  S
C1444      C1445   1.419       .  A
C1444      C1456   1.444       .  S
C1445      C1446   1.409       .  A
C1446      H1461   1.084       .  S
C1447      C1448   1.397       .  A
C1447      C1452   1.408       .  A
C1448      C1449   1.398       .  A
C1448      H1463   1.085       .  S
C1449      C1450   1.420       .  A
C1449      C1453   1.443       .  S
C1450      C1451   1.409       .  A
C1451      C1452   1.403       .  A
C1451      H1464   1.084       .  S
C1452      C1454   1.443       .  S
C1453      N1457   1.157       .  T
C1454      N1458   1.157       .  T
C1455      N1460   1.157       .  T
C1456      N1459   1.157       .  T
C1465      C1466   1.413       .  A
C1465      C1470   1.399       .  A
C1465      C1479   1.444       .  S
C1466      C1471   1.490       .  S
C1466      C1467   1.405       .  A
C1467      C1468   1.402       .  A
C1467      H1486   1.085       .  S
C1468      C1469   1.414       .  A
C1468      C1480   1.445       .  S
C1469      C1470   1.403       .  A
C1470      H1485   1.085       .  S
C1471      C1472   1.405       .  A
C1471      C1476   1.412       .  A
C1472      C1473   1.401       .  A
C1472      H1487   1.085       .  S
C1473      C1474   1.410       .  A
C1473      C1477   1.444       .  S
C1474      C1475   1.404       .  A
C1475      C1476   1.402       .  A
C1475      H1488   1.085       .  S
C1476      C1478   1.444       .  S
C1477      N1481   1.157       .  T
C1478      N1482   1.157       .  T
C1479      N1484   1.157       .  T
C1480      N1483   1.157       .  T
C1489      C1490   1.410       .  A
C1489      C1494   1.406       .  A
C1489      C1503   1.443       .  S
C1490      C1495   1.483       .  S
C1490      C1491   1.398   1_545  A
C1491      C1492   1.398       .  A
C1491      H1510   1.085       .  S
C1492      C1493   1.417   1_565  A
C1492      C1504   1.444       .  S
C1493      C1494   1.407       .  A
C1494      H1509   1.084       .  S
C1495      C1496   1.400       .  A
C1495      C1500   1.411   1_545  A
C1496      C1497   1.400       .  A
C1496      H1511   1.085       .  S
C1497      C1498   1.417   1_545  A
C1497      C1501   1.444       .  S
C1498      C1499   1.404       .  A
C1499      C1500   1.403       .  A
C1499      H1512   1.085       .  S
C1500      C1502   1.443       .  S
C1501      N1505   1.157       .  T
C1502      N1506   1.157       .  T
C1503      N1508   1.157       .  T
C1504      N1507   1.157       .  T
C1513      C1514   1.408       .  A
C1513      C1518   1.400       .  A
C1513      C1527   1.445       .  S
C1514      C1519   1.492       .  S
C1514      C1515   1.404   1_565  A
C1515      C1516   1.403       .  A
C1515      H1534   1.085       .  S
C1516      C1517   1.419       .  A
C1516      C1528   1.442       .  S
C1517      C1518   1.413   1_545  A
C1518      H1533   1.084       .  S
C1519      C1520   1.407       .  A
C1519      C1524   1.412   1_565  A
C1520      C1521   1.404       .  A
C1520      H1535   1.085       .  S
C1521      C1522   1.411       .  A
C1521      C1525   1.444       .  S
C1522      C1523   1.405   1_565  A
C1523      C1524   1.400       .  A
C1523      H1536   1.085       .  S
C1524      C1526   1.445       .  S
C1525      N1529   1.157       .  T
C1526      N1530   1.157       .  T
C1527      N1532   1.157       .  T
C1528      N1531   1.157       .  T
C1537      C1538   1.413       .  A
C1537      C1542   1.403       .  A
C1537      C1551   1.444       .  S
C1538      C1543   1.494       .  S
C1538      C1539   1.405       .  A
C1539      C1540   1.404       .  A
C1539      H1558   1.085       .  S
C1540      C1541   1.414       .  A
C1540      C1552   1.444       .  S
C1541      C1542   1.404       .  A
C1542      H1557   1.085       .  S
C1543      C1544   1.406       .  A
C1543      C1548   1.413       .  A
C1544      C1545   1.403       .  A
C1544      H1559   1.085       .  S
C1545      C1546   1.411       .  A
C1545      C1549   1.444       .  S
C1546      C1547   1.404       .  A
C1547      C1548   1.405       .  A
C1547      H1560   1.085       .  S
C1548      C1550   1.444       .  S
C1549      N1553   1.157       .  T
C1550      N1554   1.157   1_556  T
C1551      N1556   1.157       .  T
C1552      N1555   1.157       .  T
C1561      C1562   1.410       .  A
C1561      C1566   1.400       .  A
C1561      C1575   1.445       .  S
C1562      C1567   1.483       .  S
C1562      C1563   1.401       .  A
C1563      C1564   1.400       .  A
C1563      H1582   1.085       .  S
C1564      C1565   1.415       .  A
C1564      C1576   1.444       .  S
C1565      C1566   1.407       .  A
C1566      H1581   1.085       .  S
C1567      C1568   1.403       .  A
C1567      C1572   1.410       .  A
C1568      C1569   1.402       .  A
C1568      H1583   1.085       .  S
C1569      C1570   1.412       .  A
C1569      C1573   1.442       .  S
C1570      C1571   1.405       .  A
C1571      C1572   1.397       .  A
C1571      H1584   1.085       .  S
C1572      C1574   1.445       .  S
C1573      N1577   1.157       .  T
C1574      N1578   1.157   1_554  T
C1575      N1580   1.157       .  T
C1576      N1579   1.157       .  T
C1585      C1586   1.415       .  A
C1585      C1590   1.403       .  A
C1585      C1599   1.444       .  S
C1586      C1591   1.496       .  S
C1586      C1587   1.405       .  A
C1587      C1588   1.402       .  A
C1587      H1606   1.085       .  S
C1588      C1589   1.413       .  A
C1588      C1600   1.444       .  S
C1589      C1590   1.404       .  A
C1590      H1605   1.085       .  S
C1591      C1592   1.405       .  A
C1591      C1596   1.414       .  A
C1592      C1593   1.402       .  A
C1592      H1607   1.084       .  S
C1593      C1594   1.412       .  A
C1593      C1597   1.444       .  S
C1594      C1595   1.404       .  A
C1595      C1596   1.405       .  A
C1595      H1608   1.085       .  S
C1596      C1598   1.444       .  S
C1597      N1601   1.157       .  T
C1598      N1602   1.157       .  T
C1599      N1604   1.157       .  T
C1600      N1603   1.157       .  T
C1609      C1610   1.408       .  A
C1609      C1614   1.401       .  A
C1609      C1623   1.444       .  S
C1610      C1615   1.479       .  S
C1610      C1611   1.400       .  A
C1611      C1612   1.397       .  A
C1611      H1630   1.085       .  S
C1612      C1613   1.414       .  A
C1612      C1624   1.443       .  S
C1613      C1614   1.408       .  A
C1614      H1629   1.085       .  S
C1615      C1616   1.400       .  A
C1615      C1620   1.409       .  A
C1616      C1617   1.397       .  A
C1616      H1631   1.085       .  S
C1617      C1618   1.414       .  A
C1617      C1621   1.443   1_556  S
C1618      C1619   1.407       .  A
C1619      C1620   1.400       .  A
C1619      H1632   1.084       .  S
C1620      C1622   1.445       .  S
C1621      N1625   1.157       .  T
C1622      N1626   1.157       .  T
C1623      N1628   1.157       .  T
C1624      N1627   1.157       .  T
C1633      C1634   1.408       .  A
C1633      C1638   1.403       .  A
C1633      C1647   1.443       .  S
C1634      C1639   1.485       .  S
C1634      C1635   1.400       .  A
C1635      C1636   1.400       .  A
C1635      H1654   1.085       .  S
C1636      C1637   1.420       .  A
C1636      C1648   1.444       .  S
C1637      C1638   1.409       .  A
C1638      H1653   1.084       .  S
C1639      C1640   1.405       .  A
C1639      C1644   1.407       .  A
C1640      C1641   1.405       .  A
C1640      H1655   1.084       .  S
C1641      C1642   1.413       .  A
C1641      C1645   1.443       .  S
C1642      C1643   1.408       .  A
C1643      C1644   1.398       .  A
C1643      H1656   1.085   1_556  S
C1644      C1646   1.444       .  S
C1645      N1649   1.157       .  T
C1646      N1650   1.157   1_556  T
C1647      N1652   1.157       .  T
C1648      N1651   1.157       .  T
C1657      C1658   1.406       .  A
C1657      C1662   1.397       .  A
C1657      C1671   1.445       .  S
C1658      C1663   1.483       .  S
C1658      C1659   1.403       .  A
C1659      C1660   1.405       .  A
C1659      H1678   1.085       .  S
C1660      C1661   1.417       .  A
C1660      C1672   1.444       .  S
C1661      C1662   1.410       .  A
C1662      H1677   1.085       .  S
C1663      C1664   1.399       .  A
C1663      C1668   1.411       .  A
C1664      C1665   1.399       .  A
C1664      H1679   1.085       .  S
C1665      C1666   1.416       .  A
C1665      C1669   1.443       .  S
C1666      C1667   1.405       .  A
C1667      C1668   1.401       .  A
C1667      H1680   1.085       .  S
C1668      C1670   1.444       .  S
C1669      N1673   1.157       .  T
C1670      N1674   1.157       .  T
C1671      N1676   1.157       .  T
C1672      N1675   1.157       .  T
C1681      C1682   1.410       .  A
C1681      C1686   1.404       .  A
C1681      C1695   1.444       .  S
C1682      C1687   1.483       .  S
C1682      C1683   1.398       .  A
C1683      C1684   1.396       .  A
C1683      H1702   1.085       .  S
C1684      C1685   1.419       .  A
C1684      C1696   1.444       .  S
C1685      C1686   1.409       .  A
C1686      H1701   1.084       .  S
C1687      C1688   1.398       .  A
C1687      C1692   1.409       .  A
C1688      C1689   1.397       .  A
C1688      H1703   1.085       .  S
C1689      C1690   1.420       .  A
C1689      C1693   1.443       .  S
C1690      C1691   1.407       .  A
C1691      C1692   1.401       .  A
C1691      H1704   1.085       .  S
C1692      C1694   1.444       .  S
C1693      N1697   1.157       .  T
C1694      N1698   1.157       .  T
C1695      N1700   1.157       .  T
C1696      N1699   1.157       .  T
C1705      C1706   1.408       .  A
C1705      C1710   1.399       .  A
C1705      C1719   1.443       .  S
C1706      C1711   1.487       .  S
C1706      C1707   1.403       .  A
C1707      C1708   1.403       .  A
C1707      H1726   1.085       .  S
C1708      C1709   1.419       .  A
C1708      C1720   1.445       .  S
C1709      C1710   1.408       .  A
C1710      H1725   1.084       .  S
C1711      C1712   1.399       .  A
C1711      C1716   1.412       .  A
C1712      C1713   1.399       .  A
C1712      H1727   1.085       .  S
C1713      C1714   1.417       .  A
C1713      C1717   1.443       .  S
C1714      C1715   1.408       .  A
C1715      C1716   1.405       .  A
C1715      H1728   1.084       .  S
C1716      C1718   1.444       .  S
C1717      N1721   1.157       .  T
C1718      N1722   1.157       .  T
C1719      N1724   1.157       .  T
C1720      N1723   1.158       .  T
C1729      C1730   1.411       .  A
C1729      C1734   1.400       .  A
C1729      C1743   1.444       .  S
C1730      C1735   1.476       .  S
C1730      C1731   1.399       .  A
C1731      C1732   1.395       .  A
C1731      H1750   1.085       .  S
C1732      C1733   1.413       .  A
C1732      C1744   1.445       .  S
C1733      C1734   1.402       .  A
C1734      H1749   1.085       .  S
C1735      C1736   1.400       .  A
C1735      C1740   1.407       .  A
C1736      C1737   1.397       .  A
C1736      H1751   1.085       .  S
C1737      C1738   1.415       .  A
C1737      C1741   1.444       .  S
C1738      C1739   1.407       .  A
C1739      C1740   1.399       .  A
C1739      H1752   1.085       .  S
C1740      C1742   1.444       .  S
C1741      N1745   1.157       .  T
C1742      N1746   1.157       .  T
C1743      N1748   1.157       .  T
C1744      N1747   1.157       .  T
C1753      C1754   1.411       .  A
C1753      C1758   1.404       .  A
C1753      C1767   1.444       .  S
C1754      C1759   1.495       .  S
C1754      C1755   1.404       .  A
C1755      C1756   1.402       .  A
C1755      H1774   1.085       .  S
C1756      C1757   1.418       .  A
C1756      C1768   1.444       .  S
C1757      C1758   1.408       .  A
C1758      H1773   1.084       .  S
C1759      C1760   1.408       .  A
C1759      C1764   1.411       .  A
C1760      C1761   1.407       .  A
C1760      H1775   1.084       .  S
C1761      C1762   1.413       .  A
C1761      C1765   1.442       .  S
C1762      C1763   1.409       .  A
C1763      C1764   1.398       .  A
C1763      H1776   1.084       .  S
C1764      C1766   1.445       .  S
C1765      N1769   1.157       .  T
C1766      N1770   1.157       .  T
C1767      N1772   1.157       .  T
C1768      N1771   1.157       .  T
C1777      C1778   1.408       .  A
C1777      C1782   1.397       .  A
C1777      C1791   1.444       .  S
C1778      C1783   1.483       .  S
C1778      C1779   1.403       .  A
C1779      C1780   1.402       .  A
C1779      H1798   1.085       .  S
C1780      C1781   1.415       .  A
C1780      C1792   1.444       .  S
C1781      C1782   1.406       .  A
C1782      H1797   1.085       .  S
C1783      C1784   1.402       .  A
C1783      C1788   1.406       .  A
C1784      C1785   1.403       .  A
C1784      H1799   1.085       .  S
C1785      C1786   1.418       .  A
C1785      C1789   1.442       .  S
C1786      C1787   1.412       .  A
C1787      C1788   1.397       .  A
C1787      H1800   1.084       .  S
C1788      C1790   1.445       .  S
C1789      N1793   1.157       .  T
C1790      N1794   1.157       .  T
C1791      N1796   1.157       .  T
C1792      N1795   1.157       .  T
C1801      C1802   1.412       .  A
C1801      C1806   1.401       .  A
C1801      C1815   1.444       .  S
C1802      C1807   1.488       .  S
C1802      C1803   1.402       .  A
C1803      C1804   1.401       .  A
C1803      H1822   1.085       .  S
C1804      C1805   1.417       .  A
C1804      C1816   1.444       .  S
C1805      C1806   1.405       .  A
C1806      H1821   1.085       .  S
C1807      C1808   1.401       .  A
C1807      C1812   1.409       .  A
C1808      C1809   1.400       .  A
C1808      H1823   1.085       .  S
C1809      C1810   1.421       .  A
C1809      C1813   1.443       .  S
C1810      C1811   1.411       .  A
C1811      C1812   1.401       .  A
C1811      H1824   1.084       .  S
C1812      C1814   1.444       .  S
C1813      N1817   1.157       .  T
C1814      N1818   1.157       .  T
C1815      N1820   1.157       .  T
C1816      N1819   1.157       .  T
C1825      C1826   1.408       .  A
C1825      C1830   1.398       .  A
C1825      C1839   1.444       .  S
C1826      C1831   1.486       .  S
C1826      C1827   1.405       .  A
C1827      C1828   1.404       .  A
C1827      H1846   1.085       .  S
C1828      C1829   1.414       .  A
C1828      C1840   1.443       .  S
C1829      C1830   1.407       .  A
C1830      H1845   1.085       .  S
C1831      C1832   1.402       .  A
C1831      C1836   1.408       .  A
C1832      C1833   1.400       .  A
C1832      H1847   1.085       .  S
C1833      C1834   1.416       .  A
C1833      C1837   1.444       .  S
C1834      C1835   1.410       .  A
C1835      C1836   1.402       .  A
C1835      H1848   1.084       .  S
C1836      C1838   1.444       .  S
C1837      N1841   1.157       .  T
C1838      N1842   1.157       .  T
C1839      N1844   1.157       .  T
C1840      N1843   1.157       .  T
C1849      C1850   1.410       .  A
C1849      C1854   1.404       .  A
C1849      C1863   1.443       .  S
C1850      C1855   1.486       .  S
C1850      C1851   1.400       .  A
C1851      C1852   1.401       .  A
C1851      H1870   1.085       .  S
C1852      C1853   1.418       .  A
C1852      C1864   1.444       .  S
C1853      C1854   1.407       .  A
C1854      H1869   1.084       .  S
C1855      C1856   1.400       .  A
C1855      C1860   1.413       .  A
C1856      C1857   1.400       .  A
C1856      H1871   1.085       .  S
C1857      C1858   1.414       .  A
C1857      C1861   1.443       .  S
C1858      C1859   1.404       .  A
C1859      C1860   1.404       .  A
C1859      H1872   1.085       .  S
C1860      C1862   1.444       .  S
C1861      N1865   1.157       .  T
C1862      N1866   1.157       .  T
C1863      N1868   1.157       .  T
C1864      N1867   1.157       .  T
C1873      C1874   1.410       .  A
C1873      C1878   1.401       .  A
C1873      C1887   1.444       .  S
C1874      C1879   1.490       .  S
C1874      C1875   1.406       .  A
C1875      C1876   1.404       .  A
C1875      H1894   1.085       .  S
C1876      C1877   1.412       .  A
C1876      C1888   1.443       .  S
C1877      C1878   1.406       .  A
C1878      H1893   1.085       .  S
C1879      C1880   1.398       .  A
C1879      C1884   1.412       .  A
C1880      C1881   1.400       .  A
C1880      H1895   1.085       .  S
C1881      C1882   1.425       .  A
C1881      C1885   1.445       .  S
C1882      C1883   1.409       .  A
C1883      C1884   1.405       .  A
C1883      H1896   1.084       .  S
C1884      C1886   1.443       .  S
C1885      N1889   1.158       .  T
C1886      N1890   1.157       .  T
C1887      N1892   1.157       .  T
C1888      N1891   1.157       .  T
C1897      C1898   1.409       .  A
C1897      C1902   1.403       .  A
C1897      C1911   1.443       .  S
C1898      C1903   1.484       .  S
C1898      C1899   1.399       .  A
C1899      C1900   1.399       .  A
C1899      H1918   1.085       .  S
C1900      C1901   1.420       .  A
C1900      C1912   1.444       .  S
C1901      C1902   1.409       .  A
C1902      H1917   1.084       .  S
C1903      C1904   1.400       .  A
C1903      C1908   1.410       .  A
C1904      C1905   1.399       .  A
C1904      H1919   1.085       .  S
C1905      C1906   1.417       .  A
C1905      C1909   1.444       .  S
C1906      C1907   1.406       .  A
C1907      C1908   1.403       .  A
C1907      H1920   1.085       .  S
C1908      C1910   1.443       .  S
C1909      N1913   1.157       .  T
C1910      N1914   1.157       .  T
C1911      N1916   1.157       .  T
C1912      N1915   1.157       .  T
C1921      C1922   1.413       .  A
C1921      C1926   1.403       .  A
C1921      C1935   1.444       .  S
C1922      C1927   1.492       .  S
C1922      C1923   1.405       .  A
C1923      C1924   1.400       .  A
C1923      H1942   1.085       .  S
C1924      C1925   1.411       .  A
C1924      C1936   1.444       .  S
C1925      C1926   1.404       .  A
C1926      H1941   1.085       .  S
C1927      C1928   1.404       .  A
C1927      C1932   1.413       .  A
C1928      C1929   1.403       .  A
C1928      H1943   1.085       .  S
C1929      C1930   1.414       .  A
C1929      C1933   1.444       .  S
C1930      C1931   1.404       .  A
C1931      C1932   1.402       .  A
C1931      H1944   1.085       .  S
C1932      C1934   1.444       .  S
C1933      N1937   1.157       .  T
C1934      N1938   1.157       .  T
C1935      N1940   1.157       .  T
C1936      N1939   1.157       .  T
C1945      C1946   1.409       .  A
C1945      C1950   1.400       .  A
C1945      C1959   1.443       .  S
C1946      C1951   1.482       .  S
C1946      C1947   1.401       .  A
C1947      C1948   1.397       .  A
C1947      H1966   1.085       .  S
C1948      C1949   1.418       .  A
C1948      C1960   1.445       .  S
C1949      C1950   1.407       .  A
C1950      H1965   1.084       .  S
C1951      C1952   1.404       .  A
C1951      C1956   1.407       .  A
C1952      C1953   1.404       .  A
C1952      H1967   1.085       .  S
C1953      C1954   1.413       .  A
C1953      C1957   1.442       .  S
C1954      C1955   1.408       .  A
C1955      C1956   1.395       .  A
C1955      H1968   1.085       .  S
C1956      C1958   1.445       .  S
C1957      N1961   1.157       .  T
C1958      N1962   1.157   1_554  T
C1959      N1964   1.157       .  T
C1960      N1963   1.157       .  T
C1969      C1970   1.410       .  A
C1969      C1974   1.404       .  A
C1969      C1983   1.443       .  S
C1970      C1975   1.485       .  S
C1970      C1971   1.399       .  A
C1971      C1972   1.400       .  A
C1971      H1990   1.085       .  S
C1972      C1973   1.417       .  A
C1972      C1984   1.443       .  S
C1973      C1974   1.406       .  A
C1974      H1989   1.085       .  S
C1975      C1976   1.400       .  A
C1975      C1980   1.409       .  A
C1976      C1977   1.401       .  A
C1976      H1991   1.085       .  S
C1977      C1978   1.419       .  A
C1977      C1981   1.444       .  S
C1978      C1979   1.409       .  A
C1979      C1980   1.403       .  A
C1979      H1992   1.084       .  S
C1980      C1982   1.443       .  S
C1981      N1985   1.157       .  T
C1982      N1986   1.157       .  T
C1983      N1988   1.157       .  T
C1984      N1987   1.157       .  T
C1993      C1994   1.409       .  A
C1993      C1998   1.401       .  A
C1993      C2007   1.444       .  S
C1994      C1999   1.479       .  S
C1994      C1995   1.397       .  A
C1995      C1996   1.398       .  A
C1995      H2014   1.085       .  S
C1996      C1997   1.418       .  A
C1996      C2008   1.443       .  S
C1997      C1998   1.407       .  A
C1998      H2013   1.085       .  S
C1999      C2000   1.399       .  A
C1999      C2004   1.406       .  A
C2000      C2001   1.399       .  A
C2000      H2015   1.085       .  S
C2001      C2002   1.420       .  A
C2001      C2005   1.445       .  S
C2002      C2003   1.409       .  A
C2003      C2004   1.399       .  A
C2003      H2016   1.084       .  S
C2004      C2006   1.443       .  S
C2005      N2009   1.157       .  T
C2006      N2010   1.157       .  T
C2007      N2012   1.157       .  T
C2008      N2011   1.157       .  T
C2017      C2018   1.406       .  A
C2017      C2022   1.403       .  A
C2017      C2031   1.443       .  S
C2018      C2023   1.480       .  S
C2018      C2019   1.398       .  A
C2019      C2020   1.399       .  A
C2019      H2038   1.085       .  S
C2020      C2021   1.423       .  A
C2020      C2032   1.445       .  S
C2021      C2022   1.410       .  A
C2022      H2037   1.084       .  S
C2023      C2024   1.404       .  A
C2023      C2028   1.405       .  A
C2024      C2025   1.406       .  A
C2024      H2039   1.084       .  S
C2025      C2026   1.414       .  A
C2025      C2029   1.443       .  S
C2026      C2027   1.408       .  A
C2027      C2028   1.395       .  A
C2027      H2040   1.085       .  S
C2028      C2030   1.445       .  S
C2029      N2033   1.157       .  T
C2030      N2034   1.157       .  T
C2031      N2036   1.157       .  T
C2032      N2035   1.157       .  T
C2041      C2042   1.410       .  A
C2041      C2046   1.402       .  A
C2041      C2055   1.444       .  S
C2042      C2047   1.487       .  S
C2042      C2043   1.403       .  A
C2043      C2044   1.397       .  A
C2043      H2062   1.085       .  S
C2044      C2045   1.413       .  A
C2044      C2056   1.444       .  S
C2045      C2046   1.408       .  A
C2046      H2061   1.085       .  S
C2047      C2048   1.406       .  A
C2047      C2052   1.408       .  A
C2048      C2049   1.406       .  A
C2048      H2063   1.084       .  S
C2049      C2050   1.414       .  A
C2049      C2053   1.444       .  S
C2050      C2051   1.407       .  A
C2051      C2052   1.395       .  A
C2051      H2064   1.085       .  S
C2052      C2054   1.445       .  S
C2053      N2057   1.157       .  T
C2054      N2058   1.157       .  T
C2055      N2060   1.157       .  T
C2056      N2059   1.157       .  T
C2065      C2066   1.412   1_445  A
C2065      C2070   1.404       .  A
C2065      C2079   1.444       .  S
C2066      C2071   1.485       .  S
C2066      C2067   1.397       .  A
C2067      C2068   1.399       .  A
C2067      H2086   1.085       .  S
C2068      C2069   1.419       .  A
C2068      C2080   1.443       .  S
C2069      C2070   1.407   1_665  A
C2070      H2085   1.084       .  S
C2071      C2072   1.407   1_655  A
C2071      C2076   1.406   1_565  A
C2072      C2073   1.407       .  A
C2072      H2087   1.085       .  S
C2073      C2074   1.414   1_455  A
C2073      C2077   1.444       .  S
C2074      C2075   1.407   1_565  A
C2075      C2076   1.395       .  A
C2075      H2088   1.085       .  S
C2076      C2078   1.444       .  S
C2077      N2081   1.158       .  T
C2078      N2082   1.157       .  T
C2079      N2084   1.157       .  T
C2080      N2083   1.157       .  T
C2089      C2090   1.407   1_565  A
C2089      C2094   1.396       .  A
C2089      C2103   1.444       .  S
C2090      C2095   1.487   1_554  S
C2090      C2091   1.406   1_455  A
C2091      C2092   1.406       .  A
C2091      H2110   1.085       .  S
C2092      C2093   1.415   1_655  A
C2092      C2104   1.444       .  S
C2093      C2094   1.408   1_545  A
C2094      H2109   1.085       .  S
C2095      C2096   1.405   1_445  A
C2095      C2100   1.407       .  A
C2096      C2097   1.403       .  A
C2096      H2111   1.085       .  S
C2097      C2098   1.414   1_655  A
C2097      C2101   1.444       .  S
C2098      C2099   1.409   1_565  A
C2099      C2100   1.399       .  A
C2099      H2112   1.085       .  S
C2100      C2102   1.444       .  S
C2101      N2105   1.157       .  T
C2102      N2106   1.157       .  T
C2103      N2108   1.157       .  T
C2104      N2107   1.157       .  T
C2113      C2114   1.413       .  A
C2113      C2118   1.402       .  A
C2113      C2127   1.444       .  S
C2114      C2119   1.493       .  S
C2114      C2115   1.405       .  A
C2115      C2116   1.401       .  A
C2115      H2134   1.085       .  S
C2116      C2117   1.412       .  A
C2116      C2128   1.443       .  S
C2117      C2118   1.405       .  A
C2118      H2133   1.085       .  S
C2119      C2120   1.406       .  A
C2119      C2124   1.413       .  A
C2120      C2121   1.402       .  A
C2120      H2135   1.085       .  S
C2121      C2122   1.411       .  A
C2121      C2125   1.444       .  S
C2122      C2123   1.404       .  A
C2123      C2124   1.403       .  A
C2123      H2136   1.085       .  S
C2124      C2126   1.444       .  S
C2125      N2129   1.157       .  T
C2126      N2130   1.157       .  T
C2127      N2132   1.157       .  T
C2128      N2131   1.157       .  T
C2137      C2138   1.410       .  A
C2137      C2142   1.400       .  A
C2137      C2151   1.445       .  S
C2138      C2143   1.493       .  S
C2138      C2139   1.406       .  A
C2139      C2140   1.405       .  A
C2139      H2158   1.084       .  S
C2140      C2141   1.415       .  A
C2140      C2152   1.443       .  S
C2141      C2142   1.410       .  A
C2142      H2157   1.085       .  S
C2143      C2144   1.405       .  A
C2143      C2148   1.411       .  A
C2144      C2145   1.404       .  A
C2144      H2159   1.085       .  S
C2145      C2146   1.416       .  A
C2145      C2149   1.444       .  S
C2146      C2147   1.408       .  A
C2147      C2148   1.401       .  A
C2147      H2160   1.085       .  S
C2148      C2150   1.444       .  S
C2149      N2153   1.157       .  T
C2150      N2154   1.157       .  T
C2151      N2156   1.157       .  T
C2152      N2155   1.157       .  T
C2161      C2162   1.415       .  A
C2161      C2166   1.406       .  A
C2161      C2175   1.443       .  S
C2162      C2167   1.490       .  S
C2162      C2163   1.399       .  A
C2163      C2164   1.396       .  A
C2163      H2182   1.085       .  S
C2164      C2165   1.416       .  A
C2164      C2176   1.444       .  S
C2165      C2166   1.404       .  A
C2166      H2181   1.084       .  S
C2167      C2168   1.403       .  A
C2167      C2172   1.414       .  A
C2168      C2169   1.401       .  A
C2168      H2183   1.085       .  S
C2169      C2170   1.414       .  A
C2169      C2173   1.444       .  S
C2170      C2171   1.404       .  A
C2171      C2172   1.401       .  A
C2171      H2184   1.085       .  S
C2172      C2174   1.444       .  S
C2173      N2177   1.157       .  T
C2174      N2178   1.157       .  T
C2175      N2180   1.157       .  T
C2176      N2179   1.157       .  T
C2185      C2186   1.411       .  A
C2185      C2190   1.406       .  A
C2185      C2199   1.444       .  S
C2186      C2191   1.491       .  S
C2186      C2187   1.400       .  A
C2187      C2188   1.398       .  A
C2187      H2206   1.085       .  S
C2188      C2189   1.421       .  A
C2188      C2200   1.444       .  S
C2189      C2190   1.411       .  A
C2190      H2205   1.084       .  S
C2191      C2192   1.407       .  A
C2191      C2196   1.409       .  A
C2192      C2193   1.407       .  A
C2192      H2207   1.084       .  S
C2193      C2194   1.413       .  A
C2193      C2197   1.442       .  S
C2194      C2195   1.409       .  A
C2195      C2196   1.395       .  A
C2195      H2208   1.085       .  S
C2196      C2198   1.445       .  S
C2197      N2201   1.157       .  T
C2198      N2202   1.157       .  T
C2199      N2204   1.157       .  T
C2200      N2203   1.157       .  T
