geometry optimzed in LAMMPS
_audit_creation_date              2020-11-30 
_audit_creation_method            'lammps2cif' 
_symmetry_space_group_name_H-M    'P1' 
_symmetry_Int_Tables_number       1 
_symmetry_cell_setting            triclinic 
loop_ 
_symmetry_equiv_pos_as_xyz 
  x,y,z 
_cell_length_a                    31.09750113 
_cell_length_b                    30.969288024208193 
_cell_length_c                    55.344882092402536 
_cell_angle_alpha                 90.15853388983928 
_cell_angle_beta                  89.91388467784122 
_cell_angle_gamma                 90.22971912538995 
loop_ 
_atom_site_label 
_atom_site_type_symbol 
_atom_site_fract_x 
_atom_site_fract_y 
_atom_site_fract_z 
_atom_site_charge 
O1          O  0.41922711  0.41574958  0.91099644    -0.82900
C2          C  0.06699111  0.31729432  0.89652296     0.96400
O3          O  0.03154497  0.32344326  0.88621560    -0.72100
O4          O  0.44914446  0.34002699  0.88348642    -0.75600
Al5        Al  0.99943778  0.37526557  0.88678399     1.49000
C6          C  0.42557337  0.32009008  0.89834044     0.91700
O7          O  0.46481907  0.34639033  0.96187606    -0.81900
O8          O  0.02864178  0.41640909  0.96079461    -0.75400
Al9        Al  0.44799032  0.38101816  0.93461742     1.90100
O10         O  0.03147699  0.32802431  0.95408105    -0.74500
O11         O  0.06881362  0.42701750  0.91999867    -0.74300
O12         O  0.07797617  0.33957434  0.91461225    -0.80000
O13         O  0.05001946  0.40996781  0.88309564    -0.78200
O14         O  0.99822736  0.37790115  0.91907585    -1.14300
O15         O  0.46737887  0.42682294  0.88275017    -0.73500
C16         C  0.43159417  0.43526201  0.89224548     0.97200
C17         C  0.99720559  0.32302960  0.96597891     0.93600
Al18       Al  0.04733411  0.37764884  0.93590261     1.55600
O19         O  0.42704192  0.32914831  0.92054134    -0.78200
C20         C  0.07199238  0.43257400  0.89756135     0.97700
C21         C  0.49629284  0.44061388  0.96276889     0.92600
O22         O  0.46293232  0.43362993  0.95042443    -0.83500
O23         O  0.19581087  0.19592076  0.83331431    -0.82900
C24         C  0.30752060  0.05591761  0.85373553     0.96400
O25         O  0.28679830  0.07821095  0.86895123    -0.72100
O26         O  0.29827337  0.16203371  0.86831262    -0.75600
Al27       Al  0.24872199  0.12677574  0.86639407     1.49000
C28         C  0.30346011  0.19826031  0.85858989     0.91700
O29         O  0.29903149  0.16316945  0.80136943    -0.81900
O30         O  0.19378526  0.09156297  0.80158185    -0.75400
Al31       Al  0.24702299  0.17705081  0.81805828     1.90100
O32         O  0.28040663  0.09801003  0.79069013    -0.74500
O33         O  0.21247717  0.04594455  0.84005937    -0.74300
O34         O  0.29848471  0.05787898  0.83152886    -0.80000
O35         O  0.19949696  0.09165516  0.86940628    -0.78200
O36         O  0.24722498  0.12715043  0.83410356    -1.14300
O37         O  0.21084402  0.17502583  0.87029844    -0.73500
C38         C  0.18876691  0.19724519  0.85577381     0.97200
C39         C  0.30504528  0.13022738  0.78831880     0.93600
Al40       Al  0.24630280  0.07771338  0.81745547     1.55600
O41         O  0.28176815  0.20898075  0.84040754    -0.78200
C42         C  0.19248368  0.05631431  0.85897477     0.97700
C43         C  0.18738055  0.12497490  0.78915633     0.92600
O44         O  0.21116494  0.15782313  0.79169138    -0.83500
O45         O  0.32179410  0.41961458  0.58211397    -0.82900
C46         C  0.17907347  0.31153804  0.60496915     0.96400
O47         O  0.20385710  0.33053461  0.61949490    -0.72100
O48         O  0.28489225  0.31294441  0.61465227    -0.75600
Al49       Al  0.25385982  0.36548852  0.61568298     1.49000
C50         C  0.32083280  0.30692649  0.60479217     0.91700
O51         O  0.28550796  0.31801564  0.54992797    -0.81900
O52         O  0.21732578  0.42359347  0.55155299    -0.75400
Al53       Al  0.30105384  0.36868780  0.56673944     1.90100
O54         O  0.21875523  0.33600157  0.54166470    -0.74500
O55         O  0.17463213  0.40829979  0.59149615    -0.74300
O56         O  0.17918061  0.32089220  0.58281137    -0.80000
O57         O  0.22199333  0.41688754  0.62052642    -0.78200
O58         O  0.25195979  0.36892732  0.58359472    -1.14300
O59         O  0.30480944  0.40033756  0.61916100    -0.73500
C60         C  0.32575029  0.42402337  0.60470161     0.97200
C61         C  0.25134066  0.31256711  0.53807082     0.93600
Al62       Al  0.20178480  0.37195401  0.56820518     1.55600
O63         O  0.33312101  0.33239124  0.58842684    -0.78200
C64         C  0.18706203  0.42700218  0.61054743     0.97700
C65         C  0.24931104  0.42858287  0.53787438     0.92600
O66         O  0.28136263  0.40429559  0.54062398    -0.83500
O67         O  0.04887730  0.19132342  0.66853079    -0.82900
C68         C  0.44760391  0.04322882  0.64707653     0.96400
O69         O  0.47275886  0.06306969  0.63302377    -0.72100
O70         O  0.45244257  0.14522743  0.63132515    -0.75600
Al71       Al  0.00492325  0.11545213  0.63651147     1.49000
C72         C  0.44193361  0.18085568  0.64069942     0.91700
O73         O  0.44593119  0.15535743  0.69977143    -0.81900
O74         O  0.04950504  0.08561478  0.70361882    -0.75400
Al75       Al  0.49762765  0.16959332  0.68322153     1.90100
O76         O  0.46290973  0.09082705  0.71128373    -0.74500
O77         O  0.03700553  0.03753367  0.66454326    -0.74300
O78         O  0.44959588  0.04905163  0.66966856    -0.80000
O79         O  0.05801596  0.08580605  0.63852543    -0.78200
O80         O  0.00067726  0.11859580  0.66856979    -1.14300
O81         O  0.03775733  0.16676474  0.63197196    -0.73500
C82         C  0.05729993  0.19154827  0.64626307     0.97200
C83         C  0.43952063  0.12380128  0.71353658     0.93600
Al84       Al  0.99975991  0.06997915  0.68581759     1.55600
O85         O  0.46124287  0.19527090  0.65919387    -0.78200
C86         C  0.06278371  0.04934817  0.64811177     0.97700
C87         C  0.05568920  0.12053349  0.71495459     0.92600
O88         O  0.03335953  0.15365482  0.71032796    -0.83500
O89         O  0.32088340  0.07594112  0.42023109    -0.82900
C90         C  0.17513354  0.17906275  0.39712953     0.96400
O91         O  0.19888841  0.15819029  0.38280567    -0.72100
O92         O  0.27998431  0.18040427  0.38689602    -0.75600
Al93       Al  0.25129715  0.12633718  0.38710752     1.49000
C94         C  0.31620293  0.18739901  0.39635312     0.91700
O95         O  0.28352831  0.17651956  0.45273334    -0.81900
O96         O  0.21568763  0.07101299  0.45176907    -0.75400
Al97       Al  0.29933901  0.12635975  0.43563531     1.90100
O98         O  0.21659665  0.15844140  0.46099207    -0.74500
O99         O  0.17284762  0.08428170  0.41168052    -0.74300
O100        O  0.17707202  0.17237007  0.41958235    -0.80000
O101        O  0.22261220  0.07232590  0.38436847    -0.78200
O102        O  0.25002689  0.12488033  0.41922053    -1.14300
O103        O  0.30438178  0.09501248  0.38328694    -0.73500
C104        C  0.32584813  0.07210921  0.39772161     0.97200
C105        C  0.24939967  0.18168018  0.46462954     0.93600
Al106      Al  0.19985517  0.12182250  0.43471324     1.55600
O107        O  0.32914834  0.16364772  0.41336596    -0.78200
C108        C  0.18712588  0.06258380  0.39404960     0.97700
C109        C  0.24865476  0.06545920  0.46459939     0.92600
O110        O  0.28093305  0.08971686  0.46173867    -0.83500
O111        O  0.45390930  0.44982707  0.33520929    -0.82900
C112        C  0.05331592  0.29876115  0.35513979     0.96400
O113        O  0.03280342  0.32232589  0.36958889    -0.72100
O114        O  0.05475800  0.40368585  0.36726686    -0.75600
Al115      Al  0.50122327  0.37463462  0.36601428     1.49000
C116        C  0.06437048  0.43889896  0.35725250     0.91700
O117        O  0.04945999  0.41111301  0.29860932    -0.81900
O118        O  0.44843427  0.34213995  0.29912266    -0.75400
Al119      Al  0.00172058  0.42651318  0.31817452     1.90100
O120        O  0.03568311  0.34273062  0.29184900    -0.74500
O121        O  0.45889459  0.29783448  0.33908242    -0.74300
O122        O  0.04694777  0.30149353  0.33272140    -0.80000
O123        O  0.44820062  0.34507493  0.36813132    -0.78200
O124        O  0.00011502  0.37558261  0.33363741    -1.14300
O125        O  0.46951949  0.42673165  0.37136623    -0.73500
C126        C  0.44831054  0.45107288  0.35771068     0.97200
C127        C  0.05679623  0.37654251  0.28733618     0.93600
Al128      Al  0.49765181  0.32563674  0.31714888     1.55600
O129        O  0.04230786  0.45284290  0.33978756    -0.78200
C130        C  0.43860213  0.31020567  0.35762189     0.97700
C131        C  0.44012756  0.37744742  0.28891672     0.92600
O132        O  0.46159916  0.41103362  0.29353581    -0.83500
O133        O  0.07017006  0.18175160  0.08263039    -0.82900
C134        C  0.43191061  0.06926588  0.10636838     0.96400
O135        O  0.45431589  0.09164305  0.12069492    -0.72100
O136        O  0.03793367  0.08135680  0.11862661    -0.75600
Al137      Al  0.50181060  0.13021531  0.11648734     1.49000
C138        C  0.07239186  0.07411814  0.10740524     0.91700
O139        O  0.03666388  0.08062177  0.04857968    -0.81900
O140        O  0.46108849  0.17999407  0.05104981    -0.75400
Al141      Al  0.04983325  0.13121923  0.06697120     1.90100
O142        O  0.46857205  0.09297487  0.04195227    -0.74500
O143        O  0.41887110  0.16233551  0.09130252    -0.74300
O144        O  0.43314287  0.07617891  0.08394374    -0.80000
O145        O  0.46597319  0.17928233  0.11915161    -0.78200
O146        O  0.50071285  0.12980901  0.08397729    -1.14300
O147        O  0.04931605  0.16880130  0.11964759    -0.73500
C148        C  0.07183600  0.18993302  0.10489077     0.97200
C149        C  0.50244458  0.07241846  0.03727161     0.93600
Al150      Al  0.45015140  0.12805892  0.06847385     1.55600
O151        O  0.08151018  0.09424893  0.08825508    -0.78200
C152        C  0.42967509  0.18408197  0.10958395     0.97700
C153        C  0.99450994  0.18963996  0.03923654     0.92600
O154        O  0.02903482  0.16900303  0.04221650    -0.83500
O155        O  0.28772096  0.45986013  0.16493903    -0.82900
C156        C  0.19399960  0.31129273  0.14446813     0.96400
O157        O  0.20113793  0.34734491  0.13481182    -0.72100
O158        O  0.21769551  0.43038196  0.13338549    -0.75600
Al159      Al  0.25238668  0.37988866  0.13774486     1.49000
C160        C  0.19464669  0.45250901  0.14745872     0.91700
O161        O  0.21088205  0.41015324  0.21113467    -0.81900
O162        O  0.28469476  0.34786354  0.21251440    -0.75400
Al163      Al  0.24942474  0.42947362  0.18640467     1.90100
O164        O  0.19817932  0.34213431  0.20247039    -0.74500
O165        O  0.30124897  0.30921532  0.17120681    -0.74300
O166        O  0.21482392  0.29914789  0.16276384    -0.80000
O167        O  0.28729524  0.32948606  0.13422608    -0.78200
O168        O  0.25065346  0.37951952  0.17008004    -1.14300
O169        O  0.30388449  0.41245408  0.13679577    -0.73500
C170        C  0.31026668  0.44819491  0.14706738     0.97200
C171        C  0.18945456  0.37591416  0.21415168     0.93600
Al172      Al  0.24978080  0.32916471  0.18587713     1.55600
O173        O  0.19975769  0.44954794  0.16995663    -0.78200
C174        C  0.30833039  0.30665916  0.14882925     0.97700
C175        C  0.30564801  0.38194771  0.21692678     0.92600
O176        O  0.29861628  0.41612095  0.20529589    -0.83500
C177        C  0.11881578  0.28416936  0.14061028    -0.03000
C178        C  0.16220399  0.28193800  0.13365878     0.06700
C179        C  0.17569650  0.25081282  0.11676470    -0.03100
C180        C  0.14582122  0.22172850  0.10675217    -0.03100
C181        C  0.10223123  0.22307274  0.11402040     0.06800
C182        C  0.08883784  0.25450478  0.13104853    -0.03300
Br183      Br  0.02954455  0.25794673  0.14114776    -0.01800
Br184      Br  0.10102867  0.32772407  0.16352919    -0.01900
Br185      Br  0.16595362  0.17838226  0.08427864    -0.01900
Br186      Br  0.23558388  0.24728607  0.10778621    -0.01900
C187        C  0.36760801  0.20164844  0.13654429    -0.03000
C188        C  0.39915254  0.21534491  0.11992676     0.06700
C189        C  0.40094222  0.25876133  0.11273892    -0.03100
C190        C  0.37154463  0.28878390  0.12227984    -0.03100
C191        C  0.34030209  0.27548446  0.13934155     0.06800
C192        C  0.33818000  0.23156120  0.14622718    -0.03300
Br193      Br  0.29297443  0.21120032  0.16739405    -0.01800
Br194      Br  0.36434474  0.14166553  0.14578462    -0.01900
Br195      Br  0.37496030  0.34813210  0.11196919    -0.01900
Br196      Br  0.44350953  0.27664083  0.08939462    -0.01900
C197        C  0.41527141  0.00655115  0.13384348    -0.03000
C198        C  0.40176347  0.03660647  0.11621328     0.06700
C199        C  0.35815787  0.03731787  0.10906442    -0.03100
C200        C  0.32854162  0.00838968  0.11937459    -0.03100
C201        C  0.34206983  0.47828227  0.13671756     0.06800
C202        C  0.38548821  0.47703614  0.14377069    -0.03300
Br203      Br  0.40395140  0.43484894  0.16701660    -0.01800
Br204      Br  0.47445857  0.50504760  0.14433907    -0.01900
Br205      Br  0.26893315  0.01051342  0.10987250    -0.01900
Br206      Br  0.33744357  0.07999925  0.08651985    -0.01900
C207        C  0.15807485  0.02512519  0.14747711    -0.03000
C208        C  0.16250265  0.48326755  0.13738096     0.06700
C209        C  0.13711615  0.47181240  0.11704662    -0.03100
C210        C  0.10849727  0.50195395  0.10684468    -0.03100
C211        C  0.10337019  0.04289504  0.11746968     0.06800
C212        C  0.12793208  0.05428530  0.13788688    -0.03300
Br213      Br  0.12125208  0.11078720  0.15226165    -0.01800
Br214      Br  0.19526210  0.04463152  0.17328991    -0.01900
Br215      Br  0.07561273  0.48720986  0.07840697    -0.01900
Br216      Br  0.13912347  0.41423562  0.10365874    -0.01900
C217        C  0.08670842  0.40279312  0.24794242    -0.03000
C218        C  0.09021965  0.37564588  0.26828474     0.06700
C219        C  0.12541654  0.34720578  0.27010490    -0.03100
C220        C  0.15805728  0.34768301  0.25248088    -0.03100
C221        C  0.15468740  0.37505348  0.23229661     0.06800
C222        C  0.11853133  0.40196417  0.22980266    -0.03300
Br223      Br  0.11137586  0.43589660  0.20091092    -0.01800
Br224      Br  0.03714321  0.43948742  0.24419256    -0.01900
Br225      Br  0.20861481  0.31241784  0.25670356    -0.01900
Br226      Br  0.12975445  0.30786705  0.29685670    -0.01900
C227        C  0.36575923  0.39868289  0.27612831    -0.03000
C228        C  0.40555280  0.37924029  0.27066158     0.06700
C229        C  0.41242234  0.36121583  0.24759925    -0.03100
C230        C  0.37936442  0.36149214  0.23027573    -0.03100
C231        C  0.33968378  0.38117388  0.23556121     0.06800
C232        C  0.33276652  0.39953310  0.25861601    -0.03300
Br233      Br  0.27748341  0.42386514  0.26656384    -0.01800
Br234      Br  0.35646812  0.42350974  0.30772232    -0.01900
Br235      Br  0.38841227  0.33443548  0.19929171    -0.01900
Br236      Br  0.46792483  0.33780538  0.23934220    -0.01900
C237        C  0.15791307  0.25071431  0.37806418    -0.03000
C238        C  0.14384004  0.21044361  0.38710312     0.06700
C239        C  0.09994637  0.19915349  0.38524239    -0.03100
C240        C  0.07076675  0.22716825  0.37369309    -0.03100
C241        C  0.08477721  0.26767084  0.36506098     0.06800
C242        C  0.12818443  0.27982463  0.36790794    -0.03300
Br243      Br  0.14635650  0.33725553  0.35893467    -0.01800
Br244      Br  0.21783322  0.26639798  0.37973577    -0.01900
Br245      Br  0.01154389  0.20997895  0.36947110    -0.01900
Br246      Br  0.07984167  0.14503843  0.39834604    -0.01900
C247        C  0.37483459  0.24289080  0.40215693    -0.03000
C248        C  0.34469226  0.22214896  0.38676802     0.06700
C249        C  0.34411594  0.23311520  0.36187831    -0.03100
C250        C  0.37243925  0.26478559  0.35288416    -0.03100
C251        C  0.40475947  0.28216404  0.36785053     0.06800
C252        C  0.40631918  0.27050221  0.39241796    -0.03300
Br253      Br  0.45400828  0.28870001  0.41247924    -0.01800
Br254      Br  0.37277394  0.23591630  0.43684324    -0.01900
Br255      Br  0.36598499  0.28527702  0.32014337    -0.01900
Br256      Br  0.30798029  0.20279494  0.33895816    -0.01900
C257        C  0.34920174  0.49649787  0.38906444    -0.03000
C258        C  0.35757084  0.04114959  0.38801491     0.06700
C259        C  0.39612362  0.05620754  0.37746710    -0.03100
C260        C  0.42621253  0.02662456  0.36804542    -0.03100
C261        C  0.41722904  0.48194632  0.36834414     0.06800
C262        C  0.37882279  0.46695190  0.37914293    -0.03300
Br263      Br  0.36615385  0.40602383  0.37989775    -0.01800
Br264      Br  0.29623772  0.47616959  0.40338899    -0.01900
Br265      Br  0.48097684  0.04705621  0.35611260    -0.01900
Br266      Br  0.40814919  0.11738306  0.37641263    -0.01900
C267        C  0.12710775  0.48878905  0.35047726    -0.03000
C268        C  0.10065340  0.46533048  0.36661175     0.06700
C269        C  0.10739864  0.46970088  0.39176704    -0.03100
C270        C  0.13860643  0.99874060  0.40049226    -0.03100
C271        C  0.16086771  0.02633734  0.38442746     0.06800
C272        C  0.15556206  0.02058489  0.35927136    -0.03300
Br273      Br  0.18411080  0.05818588  0.33643811    -0.01800
Br274      Br  0.12644260  0.47608942  0.31628982    -0.01900
Br275      Br  0.15161752  0.99892259  0.43457141    -0.01900
Br276      Br  0.07240383  0.43866140  0.41494277    -0.01900
C277        C  0.21134971  0.01902381  0.49580790    -0.03000
C278        C  0.24931382  0.03051429  0.48328301     0.06700
C279        C  0.28761786  0.00783645  0.48854997    -0.03100
C280        C  0.28826775  0.47598622  0.50682697    -0.03100
C281        C  0.24948441  0.46277273  0.51847384     0.06800
C282        C  0.21057920  0.48295975  0.51128227    -0.03300
Br283      Br  0.15482129  0.45917320  0.51952745    -0.01800
Br284      Br  0.16074564  0.05503477  0.49421050    -0.01900
Br285      Br  0.34366085  0.45165873  0.51511661    -0.01900
Br286      Br  0.33966693  0.01856044  0.47023884    -0.01900
C287        C  0.25875171  0.23569502  0.52544467    -0.03000
C288        C  0.24965690  0.27887615  0.51938705     0.06700
C289        C  0.23945932  0.28984586  0.49535084    -0.03100
C290        C  0.23800701  0.25753093  0.47752824    -0.03100
C291        C  0.24820739  0.21474475  0.48351115     0.06800
C292        C  0.25851527  0.20370746  0.50743060    -0.03300
Br293      Br  0.27268124  0.14482159  0.51541140    -0.01800
Br294      Br  0.27002925  0.21996137  0.55850104    -0.01900
Br295      Br  0.22183681  0.27151910  0.44491219    -0.01900
Br296      Br  0.23033044  0.34934383  0.48638687    -0.01900
C297        C  0.10483935  0.29215154  0.61805859    -0.03000
C298        C  0.14797284  0.27981620  0.61460382     0.06700
C299        C  0.16158280  0.23852857  0.62202069    -0.03100
C300        C  0.13192594  0.20948935  0.63246195    -0.03100
C301        C  0.08900361  0.22220715  0.63627727     0.06800
C302        C  0.07542929  0.26339509  0.62883454    -0.03300
Br303      Br  0.01618008  0.28006191  0.63298690    -0.01800
Br304      Br  0.08636391  0.34913307  0.60877353    -0.01900
Br305      Br  0.14969310  0.15196229  0.64102065    -0.01900
Br306      Br  0.22067480  0.22162298  0.61781387    -0.01900
C307        C  0.38067608  0.25273106  0.59722773    -0.03000
C308        C  0.34910644  0.27070521  0.61294191     0.06700
C309        C  0.34526557  0.25375258  0.63670102    -0.03100
C310        C  0.37272227  0.22061004  0.64444460    -0.03100
C311        C  0.40723559  0.20712923  0.62991496     0.06800
C312        C  0.41034126  0.22212323  0.60598378    -0.03300
Br313      Br  0.45620069  0.20177405  0.58533155    -0.01800
Br314      Br  0.38364150  0.26808502  0.56340561    -0.01900
Br315      Br  0.36114224  0.19118048  0.67442040    -0.01900
Br316      Br  0.30555071  0.27713809  0.66027514    -0.01900
C317        C  0.34212503  0.99036325  0.62906677    -0.03000
C318        C  0.35665698  0.45573617  0.61463327     0.06700
C319        C  0.40111503  0.44985524  0.61093655    -0.03100
C320        C  0.43087334  0.47846684  0.62160261    -0.03100
C321        C  0.41634391  0.01250619  0.63654175     0.06800
C322        C  0.37191054  0.01851581  0.64012954    -0.03300
Br323      Br  0.35182263  0.06679663  0.65911496    -0.01800
Br324      Br  0.28134960  0.00050758  0.63279857    -0.01900
Br325      Br  0.49171235  0.46989808  0.61630346    -0.01900
Br326      Br  0.42149638  0.40117966  0.59231749    -0.01900
C327        C  0.11488686  0.02436336  0.61572545    -0.03000
C328        C  0.09735343  0.01955551  0.63935838     0.06700
C329        C  0.11229873  0.48495770  0.65397732    -0.03100
C330        C  0.14162370  0.45463506  0.64452378    -0.03100
C331        C  0.15927295  0.46044985  0.62134542     0.06800
C332        C  0.14728982  0.49637298  0.60754101    -0.03300
Br333      Br  0.17680193  0.50830749  0.57759848    -0.01800
Br334      Br  0.09293601  0.06583123  0.59273744    -0.01900
Br335      Br  0.15550062  0.40335531  0.66272936    -0.01900
Br336      Br  0.09431065  0.47802417  0.68723280    -0.01900
C337        C  0.11212560  0.14108704  0.77517416    -0.03000
C338        C  0.15354407  0.12475500  0.77034140     0.06700
C339        C  0.16302641  0.10819596  0.74724054    -0.03100
C340        C  0.13131988  0.10749689  0.72908201    -0.03100
C341        C  0.08935281  0.12251083  0.73401555     0.06800
C342        C  0.07977330  0.13893607  0.75729031    -0.03300
Br343      Br  0.02166199  0.15560157  0.76536578    -0.01800
Br344      Br  0.09995385  0.16712714  0.80613734    -0.01900
Br345      Br  0.14640814  0.08765655  0.69712335    -0.01900
Br346      Br  0.22016881  0.08740647  0.74032324    -0.01900
C347        C  0.38958702  0.16594137  0.74156907    -0.03000
C348        C  0.40515780  0.12565989  0.73276580     0.06700
C349        C  0.38837460  0.08724325  0.74316144    -0.03100
C350        C  0.35853277  0.08914002  0.76238718    -0.03100
C351        C  0.34048527  0.12910995  0.76978480     0.06800
C352        C  0.35621707  0.16749397  0.75895040    -0.03300
Br353      Br  0.33180120  0.22325067  0.76688737    -0.01800
Br354      Br  0.41478643  0.22032462  0.73144754    -0.01900
Br355      Br  0.34594865  0.03613265  0.77956118    -0.01900
Br356      Br  0.40375017  0.03062824  0.73090508    -0.01900
C357        C  0.02589955  0.01062376  0.97902546    -0.03000
C358        C  0.49678106  0.47571760  0.98095378     0.06700
C359        C  0.46935236  0.47295401  0.00112823    -0.03100
C360        C  0.47152408  0.50427513  0.01956969    -0.03100
C361        C  0.50144906  0.03865335  0.01812759     0.06800
C362        C  0.02857281  0.04176642  0.99767781    -0.03300
Br363      Br  0.06806537  0.08971004  0.99459795    -0.01800
Br364      Br  0.06004433  0.01735575  0.95011582    -0.01900
Br365      Br  0.43450941  0.49834681  0.04731435    -0.01900
Br366      Br  0.42960297  0.42510815  0.00389753    -0.01900
C367        C  0.01932473  0.29482985  0.00653051    -0.03000
C368        C  0.99505063  0.28979668  0.98519089     0.06700
C369        C  0.46921335  0.25262807  0.98215203    -0.03100
C370        C  0.46911694  0.21988045  0.99981807    -0.03100
C371        C  0.99336775  0.22487724  0.02115619     0.06800
C372        C  0.01812197  0.26270996  0.02456463    -0.03300
Br373      Br  0.04969830  0.27108464  0.05418449    -0.01800
Br374      Br  0.05340049  0.34637289  0.01132314    -0.01900
Br375      Br  0.43831812  0.16667033  0.99393445    -0.01900
Br376      Br  0.43495757  0.24570553  0.95340361    -0.01900
C377        C  0.15883496  0.27151962  0.85988368    -0.03000
C378        C  0.15604170  0.22715749  0.86545389     0.06700
C379        C  0.12361978  0.21232933  0.88136663    -0.03100
C380        C  0.09454227  0.24184063  0.89181821    -0.03100
C381        C  0.09744975  0.28600629  0.88613886     0.06800
C382        C  0.12957780  0.30072766  0.87016334    -0.03300
Br383      Br  0.13410823  0.36125772  0.86248211    -0.01800
Br384      Br  0.20428999  0.29327243  0.83930561    -0.01900
Br385      Br  0.05146886  0.22227827  0.91444599    -0.01900
Br386      Br  0.11783254  0.15152689  0.88817859    -0.01900
C387        C  0.37752694  0.22850973  0.86099552    -0.03000
C388        C  0.33466267  0.22889029  0.86893534     0.06700
C389        C  0.32162059  0.25816543  0.88698259    -0.03100
C390        C  0.35156197  0.28704480  0.89725224    -0.03100
C391        C  0.39484123  0.28704642  0.88924695     0.06800
C392        C  0.40772321  0.25711816  0.87124918    -0.03300
Br393      Br  0.46702972  0.25312866  0.86124118    -0.01800
Br394      Br  0.39429962  0.18912759  0.83558910    -0.01900
Br395      Br  0.33193492  0.32764216  0.92144077    -0.01900
Br396      Br  0.26219298  0.25961801  0.89708586    -0.01900
C397        C  0.37277988  0.45339588  0.86342081    -0.03000
C398        C  0.40273387  0.46709606  0.88090592     0.06700
C399        C  0.40312472  0.01040674  0.88857363    -0.03100
C400        C  0.37277006  0.03981964  0.87933044    -0.03100
C401        C  0.34163544  0.02594592  0.86228785     0.06800
C402        C  0.34205619  0.48245500  0.85430578    -0.03300
Br403      Br  0.29843767  0.46095914  0.83249561    -0.01800
Br404      Br  0.37337115  0.39421673  0.85234478    -0.01900
Br405      Br  0.37489693  0.09921187  0.88988756    -0.01900
Br406      Br  0.44547732  0.02905050  0.91187549    -0.01900
C407        C  0.17327588  0.99991937  0.88892819    -0.03000
C408        C  0.16130366  0.02598274  0.86933274     0.06700
C409        C  0.12025286  0.52194115  0.85908675    -0.03100
C410        C  0.09081996  0.49169930  0.86835498    -0.03100
C411        C  0.10258065  0.46510667  0.88802221     0.06800
C412        C  0.14426127  0.46914403  0.89813489    -0.03300
Br413      Br  0.16377037  0.43051051  0.92319390    -0.01800
Br414      Br  0.23017546  0.00558691  0.90260597    -0.01900
Br415      Br  0.03428362  0.48826601  0.85407817    -0.01900
Br416      Br  0.10427429  0.55857411  0.83249254    -0.01900
O417        O  0.41922810  0.91575129  0.91099638    -0.82900
C418        C  0.06699141  0.81729661  0.89652307     0.96400
O419        O  0.03154521  0.82344493  0.88621566    -0.72100
O420        O  0.44914616  0.84002765  0.88348608    -0.75600
Al421      Al  0.99943680  0.87526639  0.88678398     1.49000
C422        C  0.42557392  0.82009169  0.89833990     0.91700
O423        O  0.46482062  0.84639033  0.96187558    -0.81900
O424        O  0.02864225  0.91641107  0.96079430    -0.75400
Al425      Al  0.44799101  0.88101918  0.93461735     1.90100
O426        O  0.03147812  0.82802669  0.95408149    -0.74500
O427        O  0.06881264  0.92701977  0.91999812    -0.74300
O428        O  0.07797615  0.83957691  0.91461226    -0.80000
O429        O  0.05001762  0.90996953  0.88309529    -0.78200
O430        O  0.99822672  0.87790241  0.91907596    -1.14300
O431        O  0.46737919  0.92682310  0.88274941    -0.73500
C432        C  0.43159446  0.93526246  0.89224481     0.97200
C433        C  0.99720667  0.82303057  0.96597910     0.93600
Al434      Al  0.04733402  0.87765107  0.93590247     1.55600
O435        O  0.42704195  0.82914985  0.92054078    -0.78200
C436        C  0.07199085  0.93257585  0.89756070     0.97700
C437        C  0.49629300  0.94061515  0.96276938     0.92600
O438        O  0.46293221  0.93363061  0.95042524    -0.83500
O439        O  0.19581021  0.69592076  0.83331557    -0.82900
C440        C  0.30752088  0.55591913  0.85373790     0.96400
O441        O  0.28679768  0.57821204  0.86895329    -0.72100
O442        O  0.29827352  0.66203507  0.86831369    -0.75600
Al443      Al  0.24872193  0.62677700  0.86639556     1.49000
C444        C  0.30345993  0.69826153  0.85859068     0.91700
O445        O  0.29903106  0.66317007  0.80137038    -0.81900
O446        O  0.19378599  0.59156175  0.80158309    -0.75400
Al447      Al  0.24702230  0.67705101  0.81805940     1.90100
O448        O  0.28040769  0.59801004  0.79069177    -0.74500
O449        O  0.21247861  0.54594490  0.84006146    -0.74300
O450        O  0.29848611  0.55788100  0.83153106    -0.80000
O451        O  0.19949693  0.59165625  0.86940790    -0.78200
O452        O  0.24722490  0.62715105  0.83410500    -1.14300
O453        O  0.21084438  0.67502740  0.87029981    -0.73500
C454        C  0.18876687  0.69724619  0.85577508     0.97200
C455        C  0.30504595  0.63022751  0.78832021     0.93600
Al456      Al  0.24630383  0.57771369  0.81745725     1.55600
O457        O  0.28176749  0.70898156  0.84040841    -0.78200
C458        C  0.19248470  0.55631471  0.85897670     0.97700
C459        C  0.18738023  0.62497364  0.78915762     0.92600
O460        O  0.21116379  0.65782247  0.79169279    -0.83500
O461        O  0.32179516  0.91961167  0.58211537    -0.82900
C462        C  0.17907452  0.81153607  0.60497074     0.96400
O463        O  0.20385735  0.83053310  0.61949675    -0.72100
O464        O  0.28489253  0.81294271  0.61465458    -0.75600
Al465      Al  0.25386037  0.86548695  0.61568489     1.49000
C466        C  0.32083284  0.80692420  0.60479418     0.91700
O467        O  0.28550802  0.81801270  0.54993011    -0.81900
O468        O  0.21732703  0.92359209  0.55155508    -0.75400
Al469      Al  0.30105439  0.86868513  0.56674115     1.90100
O470        O  0.21875596  0.83600002  0.54166635    -0.74500
O471        O  0.17463285  0.90829823  0.59149798    -0.74300
O472        O  0.17918192  0.82089050  0.58281298    -0.80000
O473        O  0.22199412  0.91688631  0.62052812    -0.78200
O474        O  0.25196054  0.86892540  0.58359657    -1.14300
O475        O  0.30481019  0.90033573  0.61916262    -0.73500
C476        C  0.32575128  0.92402087  0.60470293     0.97200
C477        C  0.25134087  0.81256462  0.53807284     0.93600
Al478      Al  0.20178574  0.87195241  0.56820700     1.55600
O479        O  0.33312107  0.83238848  0.58842869    -0.78200
C480        C  0.18706294  0.92700101  0.61054916     0.97700
C481        C  0.24931188  0.92858142  0.53787628     0.92600
O482        O  0.28136328  0.90429317  0.54062539    -0.83500
O483        O  0.04887741  0.69132060  0.66853032    -0.82900
C484        C  0.44760440  0.54322913  0.64707706     0.96400
O485        O  0.47275989  0.56307001  0.63302461    -0.72100
O486        O  0.45244538  0.64522760  0.63132588    -0.75600
Al487      Al  0.00492147  0.61545033  0.63651134     1.49000
C488        C  0.44193548  0.68085511  0.64070064     0.91700
O489        O  0.44593343  0.65535686  0.69977317    -0.81900
O490        O  0.04950476  0.58561284  0.70361882    -0.75400
Al491      Al  0.49762947  0.66959263  0.68322259     1.90100
O492        O  0.46291079  0.59082583  0.71128481    -0.74500
O493        O  0.03700444  0.53753211  0.66454308    -0.74300
O494        O  0.44959641  0.54905119  0.66966919    -0.80000
O495        O  0.05801414  0.58580461  0.63852509    -0.78200
O496        O  0.00067631  0.61859409  0.66856972    -1.14300
O497        O  0.03775522  0.66676321  0.63197144    -0.73500
C498        C  0.05729907  0.69154591  0.64626245     0.97200
C499        C  0.43952246  0.62380058  0.71353814     0.93600
Al500      Al  0.99975904  0.56997756  0.68581761     1.55600
O501        O  0.46124407  0.69526998  0.65919535    -0.78200
C502        C  0.06278224  0.54934684  0.64811137     0.97700
C503        C  0.05568948  0.62053155  0.71495453     0.92600
O504        O  0.03335988  0.65365296  0.71032779    -0.83500
O505        O  0.32088348  0.57594370  0.42023019    -0.82900
C506        C  0.17513346  0.67906478  0.39712935     0.96400
O507        O  0.19888857  0.65819282  0.38280544    -0.72100
O508        O  0.27998403  0.68040822  0.38689637    -0.75600
Al509      Al  0.25129765  0.62634070  0.38710713     1.49000
C510        C  0.31620290  0.68740270  0.39635336     0.91700
O511        O  0.28352870  0.67652090  0.45273348    -0.81900
O512        O  0.21568783  0.57101478  0.45176797    -0.75400
Al513      Al  0.29933924  0.62636191  0.43563487     1.90100
O514        O  0.21659699  0.65844246  0.46099205    -0.74500
O515        O  0.17284813  0.58428403  0.41167960    -0.74300
O516        O  0.17707232  0.67237240  0.41958219    -0.80000
O517        O  0.22261324  0.57232920  0.38436759    -0.78200
O518        O  0.25002716  0.62488292  0.41922010    -1.14300
O519        O  0.30438286  0.59501686  0.38328624    -0.73500
C520        C  0.32584858  0.57211258  0.39772072     0.97200
C521        C  0.24940027  0.68168055  0.46463005     0.93600
Al522      Al  0.19985541  0.62182451  0.43471270     1.55600
O523        O  0.32914850  0.66365063  0.41336578    -0.78200
C524        C  0.18712694  0.56258655  0.39404863     0.97700
C525        C  0.24865482  0.56546085  0.46459828     0.92600
O526        O  0.28093318  0.58971851  0.46173779    -0.83500
O527        O  0.45391115  0.94982804  0.33520987    -0.82900
C528        C  0.05331414  0.79876042  0.35513977     0.96400
O529        O  0.03280110  0.82232459  0.36958892    -0.72100
O530        O  0.05475461  0.90368519  0.36726792    -0.75600
Al531      Al  0.50122630  0.87463523  0.36601383     1.49000
C532        C  0.06436701  0.93889837  0.35725351     0.91700
O533        O  0.04945875  0.91111316  0.29860983    -0.81900
O534        O  0.44843460  0.84214249  0.29912233    -0.75400
Al535      Al  0.00171879  0.92651224  0.31817487     1.90100
O536        O  0.03568231  0.84273089  0.29184899    -0.74500
O537        O  0.45889411  0.79783648  0.33908195    -0.74300
O538        O  0.04694687  0.80149344  0.33272132    -0.80000
O539        O  0.44820371  0.84507622  0.36813171    -0.78200
O540        O  0.00011335  0.87558148  0.33363756    -1.14300
O541        O  0.46952312  0.92673236  0.37136647    -0.73500
C542        C  0.44831310  0.95107323  0.35771127     0.97200
C543        C  0.05679524  0.87654291  0.28733642     0.93600
Al544      Al  0.49765190  0.82563792  0.31714828     1.55600
O545        O  0.04230513  0.95284195  0.33978826    -0.78200
C546        C  0.43860326  0.81020785  0.35762196     0.97700
C547        C  0.44012751  0.87745037  0.28891703     0.92600
O548        O  0.46159918  0.91103638  0.29353632    -0.83500
O549        O  0.07017226  0.68174963  0.08263154    -0.82900
C550        C  0.43190769  0.56926798  0.10636600     0.96400
O551        O  0.45431285  0.59164438  0.12069296    -0.72100
O552        O  0.03793060  0.58135751  0.11862785    -0.75600
Al553      Al  0.50181016  0.63021397  0.11648639     1.49000
C554        C  0.07238861  0.57411734  0.10740677     0.91700
O555        O  0.03666314  0.58062060  0.04858018    -0.81900
O556        O  0.46109317  0.67999668  0.05104924    -0.75400
Al557      Al  0.04983344  0.63121796  0.06697197     1.90100
O558        O  0.46857285  0.59297786  0.04195037    -0.74500
O559        O  0.41887341  0.66233877  0.09130123    -0.74300
O560        O  0.43314108  0.57618154  0.08394142    -0.80000
O561        O  0.46597599  0.67928323  0.11915051    -0.78200
O562        O  0.50071384  0.62980868  0.08397637    -1.14300
O563        O  0.04931456  0.66880143  0.11964838    -0.73500
C564        C  0.07183677  0.68993161  0.10489187     0.97200
C565        C  0.50244454  0.57241979  0.03726987     0.93600
Al566      Al  0.45015285  0.62806154  0.06847236     1.55600
O567        O  0.08150792  0.59424669  0.08825624    -0.78200
C568        C  0.42967826  0.68408454  0.10958282     0.97700
C569        C  0.99451196  0.68963977  0.03923644     0.92600
O570        O  0.02903666  0.66900268  0.04221704    -0.83500
O571        O  0.28772167  0.95985948  0.16494022    -0.82900
C572        C  0.19400248  0.81129031  0.14446904     0.96400
O573        O  0.20114065  0.84734231  0.13481242    -0.72100
O574        O  0.21769751  0.93038004  0.13338541    -0.75600
Al575      Al  0.25238897  0.87988710  0.13774586     1.49000
C576        C  0.19464834  0.95250813  0.14745798     0.91700
O577        O  0.21087994  0.91015369  0.21113440    -0.81900
O578        O  0.28469612  0.84786460  0.21251543    -0.75400
Al579      Al  0.24942394  0.92947372  0.18640512     1.90100
O580        O  0.19818074  0.84213336  0.20247188    -0.74500
O581        O  0.30125136  0.80921527  0.17120840    -0.74300
O582        O  0.21482626  0.79914648  0.16276522    -0.80000
O583        O  0.28729816  0.82948508  0.13422757    -0.78200
O584        O  0.25065435  0.87951888  0.17008103    -1.14300
O585        O  0.30388678  0.91245282  0.13679756    -0.73500
C586        C  0.31026904  0.94819342  0.14706938     0.97200
C587        C  0.18945407  0.87591398  0.21415216     0.93600
Al588      Al  0.24978255  0.82916437  0.18587848     1.55600
O589        O  0.19975780  0.94954755  0.16995598    -0.78200
C590        C  0.30833374  0.80665908  0.14883099     0.97700
C591        C  0.30564750  0.88194986  0.21692797     0.92600
O592        O  0.29861411  0.91612281  0.20529735    -0.83500
C593        C  0.11881759  0.78417050  0.14060911    -0.03000
C594        C  0.16220686  0.78193484  0.13366001     0.06700
C595        C  0.17570019  0.75080444  0.11676911    -0.03100
C596        C  0.14582463  0.72171957  0.10675721    -0.03100
C597        C  0.10223312  0.72306977  0.11402214     0.06800
C598        C  0.08883910  0.75450621  0.13104752    -0.03300
Br599      Br  0.02954441  0.75795380  0.14114358    -0.01800
Br600      Br  0.10103007  0.82773015  0.16352500    -0.01900
Br601      Br  0.16595808  0.67836365  0.08428983    -0.01900
Br602      Br  0.23558872  0.74727191  0.10779381    -0.01900
C603        C  0.36761415  0.70165021  0.13654515    -0.03000
C604        C  0.39915645  0.71534723  0.11992647     0.06700
C605        C  0.40094524  0.75876383  0.11273893    -0.03100
C606        C  0.37154798  0.78878576  0.12228090    -0.03100
C607        C  0.34030695  0.77548563  0.13934340     0.06800
C608        C  0.33818690  0.73156237  0.14622933    -0.03300
Br609      Br  0.29298512  0.71120038  0.16739839    -0.01800
Br610      Br  0.36435222  0.64166684  0.14578482    -0.01900
Br611      Br  0.37496231  0.84813410  0.11197046    -0.01900
Br612      Br  0.44351090  0.77664435  0.08939375    -0.01900
C613        C  0.41526849  0.50655187  0.13383999    -0.03000
C614        C  0.40176025  0.53660822  0.11621041     0.06700
C615        C  0.35815438  0.53732039  0.10906210    -0.03100
C616        C  0.32853793  0.50839293  0.11937297    -0.03100
C617        C  0.34207286  0.97828047  0.13672006     0.06800
C618        C  0.38549080  0.97703597  0.14377450    -0.03300
Br619      Br  0.40395305  0.93485193  0.16702252    -0.01800
Br620      Br  0.47446161  0.00504730  0.14434268    -0.01900
Br621      Br  0.26892844  0.51051989  0.10987339    -0.01900
Br622      Br  0.33744050  0.58000149  0.08651718    -0.01900
C623        C  0.15806838  0.52512371  0.14748019    -0.03000
C624        C  0.16250588  0.98326758  0.13737936     0.06700
C625        C  0.13711777  0.97181181  0.11704582    -0.03100
C626        C  0.10849949  0.00195374  0.10684357    -0.03100
C627        C  0.10336576  0.54289401  0.11747179     0.06800
C628        C  0.12792473  0.55428315  0.13789027    -0.03300
Br629      Br  0.12123934  0.61078269  0.15226725    -0.01800
Br630      Br  0.19525224  0.54462961  0.17329461    -0.01900
Br631      Br  0.07561377  0.98720892  0.07840644    -0.01900
Br632      Br  0.13912229  0.91423371  0.10365965    -0.01900
C633        C  0.08670688  0.90279218  0.24794215    -0.03000
C634        C  0.09021900  0.87564680  0.26828517     0.06700
C635        C  0.12541731  0.84720866  0.27010629    -0.03100
C636        C  0.15805848  0.84768630  0.25248255    -0.03100
C637        C  0.15468672  0.87505335  0.23229700     0.06800
C638        C  0.11852925  0.90196190  0.22980210    -0.03300
Br639      Br  0.11137145  0.93588925  0.20090874    -0.01800
Br640      Br  0.03714171  0.93948644  0.24419201    -0.01900
Br641      Br  0.20861948  0.81242718  0.25670753    -0.01900
Br642      Br  0.12975620  0.80787190  0.29685887    -0.01900
C643        C  0.36576091  0.89869074  0.27612811    -0.03000
C644        C  0.40555281  0.87924408  0.27066206     0.06700
C645        C  0.41242136  0.86121737  0.24760023    -0.03100
C646        C  0.37936323  0.86149344  0.23027695    -0.03100
C647        C  0.33968360  0.88117746  0.23556207     0.06800
C648        C  0.33276812  0.89954125  0.25861590    -0.03300
Br649      Br  0.27748779  0.92388122  0.26656239    -0.01800
Br650      Br  0.35647244  0.92352362  0.30772088    -0.01900
Br651      Br  0.38841043  0.83443515  0.19929333    -0.01900
Br652      Br  0.46792328  0.83780538  0.23934312    -0.01900
C653        C  0.15791142  0.75071620  0.37806474    -0.03000
C654        C  0.14383934  0.71044464  0.38710294     0.06700
C655        C  0.09994639  0.69915246  0.38524096    -0.03100
C656        C  0.07076630  0.72716681  0.37369179    -0.03100
C657        C  0.08477569  0.76767061  0.36506087     0.06800
C658        C  0.12818226  0.77982587  0.36790859    -0.03300
Br659      Br  0.14635276  0.83725778  0.35893614    -0.01800
Br660      Br  0.21783110  0.76640154  0.37973652    -0.01900
Br661      Br  0.01154459  0.70997509  0.36946820    -0.01900
Br662      Br  0.07984369  0.64503459  0.39834207    -0.01900
C663        C  0.37483745  0.74289162  0.40215702    -0.03000
C664        C  0.34469203  0.72215317  0.38676851     0.06700
C665        C  0.34411252  0.73312344  0.36187934    -0.03100
C666        C  0.37243644  0.76479347  0.35288538    -0.03100
C667        C  0.40476008  0.78216736  0.36785095     0.06800
C668        C  0.40632226  0.77050248  0.39241781    -0.03300
Br669      Br  0.45401423  0.78869618  0.41247798    -0.01800
Br670      Br  0.37278078  0.73591372  0.43684322    -0.01900
Br671      Br  0.36597809  0.78529156  0.32014624    -0.01900
Br672      Br  0.30797147  0.70280950  0.33895925    -0.01900
C673        C  0.34920226  0.99649506  0.38906434    -0.03000
C674        C  0.35757047  0.54115227  0.38801384     0.06700
C675        C  0.39612279  0.55620925  0.37746508    -0.03100
C676        C  0.42621076  0.52662538  0.36804325    -0.03100
C677        C  0.41723101  0.98194552  0.36834514     0.06800
C678        C  0.37882388  0.96695004  0.37914245    -0.03300
Br679      Br  0.36615429  0.90602194  0.37989433    -0.01800
Br680      Br  0.29623780  0.97616541  0.40338773    -0.01900
Br681      Br  0.48097470  0.54705588  0.35610934    -0.01900
Br682      Br  0.40814930  0.61738466  0.37640991    -0.01900
C683        C  0.12710673  0.98878521  0.35047858    -0.03000
C684        C  0.10064930  0.96533016  0.36661304     0.06700
C685        C  0.10739120  0.96970372  0.39176837    -0.03100
C686        C  0.13861219  0.49873968  0.40049086    -0.03100
C687        C  0.16086957  0.52633984  0.38442626     0.06800
C688        C  0.15556158  0.52058991  0.35927020    -0.03300
Br689      Br  0.18410484  0.55819622  0.33643756    -0.01800
Br690      Br  0.12644272  0.97608298  0.31629144    -0.01900
Br691      Br  0.15162613  0.49892031  0.43456963    -0.01900
Br692      Br  0.07238798  0.93867272  0.41494368    -0.01900
C693        C  0.21134942  0.51902541  0.49580631    -0.03000
C694        C  0.24931376  0.53051579  0.48328159     0.06700
C695        C  0.28761757  0.50783746  0.48854818    -0.03100
C696        C  0.28826847  0.97598645  0.50682948    -0.03100
C697        C  0.24948526  0.96277188  0.51847599     0.06800
C698        C  0.21057975  0.98295838  0.51128411    -0.03300
Br699      Br  0.15482205  0.95917160  0.51952945    -0.01800
Br700      Br  0.16074575  0.55503702  0.49420923    -0.01900
Br701      Br  0.34366222  0.95166263  0.51512112    -0.01900
Br702      Br  0.33966736  0.51856333  0.47023792    -0.01900
C703        C  0.25874981  0.73569231  0.52544630    -0.03000
C704        C  0.24965718  0.77887402  0.51938889     0.06700
C705        C  0.23946318  0.78984511  0.49535244    -0.03100
C706        C  0.23801126  0.75753107  0.47752942    -0.03100
C707        C  0.24820838  0.71474412  0.48351217     0.06800
C708        C  0.25851403  0.70370548  0.50743176    -0.03300
Br709      Br  0.27267938  0.64481929  0.51541195    -0.01800
Br710      Br  0.27002384  0.71995720  0.55850284    -0.01900
Br711      Br  0.22184719  0.77152171  0.44491274    -0.01900
Br712      Br  0.23033919  0.84934390  0.48638884    -0.01900
C713        C  0.10483942  0.79214803  0.61805726    -0.03000
C714        C  0.14797384  0.77981390  0.61460492     0.06700
C715        C  0.16158395  0.73852701  0.62202317    -0.03100
C716        C  0.13192626  0.70948744  0.63246340    -0.03100
C717        C  0.08900303  0.72220437  0.63627661     0.06800
C718        C  0.07542865  0.76339148  0.62883245    -0.03300
Br719      Br  0.01617860  0.78005737  0.63298237    -0.01800
Br720      Br  0.08636366  0.84912823  0.60876976    -0.01900
Br721      Br  0.14969320  0.65196074  0.64102319    -0.01900
Br722      Br  0.22067709  0.72162271  0.61781928    -0.01900
C723        C  0.38067440  0.75272762  0.59722913    -0.03000
C724        C  0.34910620  0.77070275  0.61294387     0.06700
C725        C  0.34526714  0.75375145  0.63670332    -0.03100
C726        C  0.37272429  0.72060915  0.64444672    -0.03100
C727        C  0.40723682  0.70712811  0.62991654     0.06800
C728        C  0.41034093  0.72212112  0.60598511    -0.03300
Br729      Br  0.45620077  0.70177370  0.58533262    -0.01800
Br730      Br  0.38363520  0.76807793  0.56340635    -0.01900
Br731      Br  0.36114617  0.69118055  0.67442310    -0.01900
Br732      Br  0.30555432  0.77713846  0.66027802    -0.01900
C733        C  0.34212482  0.49036219  0.62906879    -0.03000
C734        C  0.35665791  0.95573372  0.61463423     0.06700
C735        C  0.40111621  0.94984949  0.61094018    -0.03100
C736        C  0.43087420  0.97846168  0.62160597    -0.03100
C737        C  0.41634390  0.51250733  0.63654161     0.06800
C738        C  0.37191070  0.51851413  0.64013183    -0.03300
Br739      Br  0.35182304  0.56679118  0.65912039    -0.01800
Br740      Br  0.28134962  0.50050310  0.63280434    -0.01900
Br741      Br  0.49171369  0.96988847  0.61631121    -0.01900
Br742      Br  0.42149772  0.90116909  0.59232509    -0.01900
C743        C  0.11488438  0.52436283  0.61572447    -0.03000
C744        C  0.09735178  0.51955451  0.63935760     0.06700
C745        C  0.11229979  0.98495881  0.65397844    -0.03100
C746        C  0.14162474  0.95463567  0.64452529    -0.03100
C747        C  0.15927415  0.96044949  0.62134687     0.06800
C748        C  0.14729205  0.99637280  0.60754232    -0.03300
Br749      Br  0.17680568  0.00830713  0.57760027    -0.01800
Br750      Br  0.09293226  0.56583057  0.59273672    -0.01900
Br751      Br  0.15550199  0.90335695  0.66273168    -0.01900
Br752      Br  0.09431078  0.97802586  0.68723386    -0.01900
C753        C  0.11212556  0.64108680  0.77517436    -0.03000
C754        C  0.15354370  0.62475300  0.77034244     0.06700
C755        C  0.16302608  0.60819236  0.74724190    -0.03100
C756        C  0.13131987  0.60749279  0.72908307    -0.03100
C757        C  0.08935305  0.62250860  0.73401580     0.06800
C758        C  0.07977366  0.63893582  0.75729019    -0.03300
Br759      Br  0.02166278  0.65560447  0.76536471    -0.01800
Br760      Br  0.09995367  0.66712970  0.80613679    -0.01900
Br761      Br  0.14640852  0.58764950  0.69712500    -0.01900
Br762      Br  0.22016856  0.58740227  0.74032540    -0.01900
C763        C  0.38959078  0.66594083  0.74157163    -0.03000
C764        C  0.40516003  0.62565924  0.73276766     0.06700
C765        C  0.38837561  0.58724284  0.74316291    -0.03100
C766        C  0.35853358  0.58913975  0.76238859    -0.03100
C767        C  0.34048678  0.62910994  0.76978651     0.06800
C768        C  0.35622046  0.66749384  0.75895277    -0.03300
Br769      Br  0.33180740  0.72325134  0.76689063    -0.01800
Br770      Br  0.41479325  0.72032337  0.73145133    -0.01900
Br771      Br  0.34594873  0.53613232  0.77956227    -0.01900
Br772      Br  0.40374997  0.53062789  0.73090615    -0.01900
C773        C  0.02590720  0.51061719  0.97902813    -0.03000
C774        C  0.49678112  0.97571771  0.98095497     0.06700
C775        C  0.46935753  0.97294955  0.00113143    -0.03100
C776        C  0.47153007  0.00426962  0.01957346    -0.03100
C777        C  0.50144791  0.53865493  0.01812561     0.06800
C778        C  0.02858113  0.54175896  0.99768092    -0.03300
Br779      Br  0.06808787  0.58969175  0.99460573    -0.01800
Br780      Br  0.06006020  0.51734447  0.95012124    -0.01900
Br781      Br  0.43452456  0.99833460  0.04732154    -0.01900
Br782      Br  0.42961458  0.92509882  0.00390258    -0.01900
C783        C  0.01932506  0.79483098  0.00653104    -0.03000
C784        C  0.99505239  0.78979714  0.98519090     0.06700
C785        C  0.46921707  0.75263065  0.98215254    -0.03100
C786        C  0.46912205  0.71988233  0.99981813    -0.03100
C787        C  0.99337054  0.72487678  0.02115584     0.06800
C788        C  0.01812404  0.76270988  0.02456457    -0.03300
Br789      Br  0.04970251  0.77108278  0.05418393    -0.01800
Br790      Br  0.05339485  0.84637740  0.01132564    -0.01900
Br791      Br  0.43832305  0.66667230  0.99393444    -0.01900
Br792      Br  0.43495832  0.74570971  0.95340506    -0.01900
C793        C  0.15883391  0.77152056  0.85988344    -0.03000
C794        C  0.15604189  0.72715887  0.86545513     0.06700
C795        C  0.12362179  0.71233179  0.88136936    -0.03100
C796        C  0.09454431  0.74184352  0.89182049    -0.03100
C797        C  0.09745023  0.78600853  0.88613947     0.06800
C798        C  0.12957718  0.80072910  0.87016305    -0.03300
Br799      Br  0.13410735  0.86125896  0.86248102    -0.01800
Br800      Br  0.20428684  0.79327213  0.83930346    -0.01900
Br801      Br  0.05147280  0.72228280  0.91444981    -0.01900
Br802      Br  0.11783683  0.65153016  0.88818417    -0.01900
C803        C  0.37752758  0.72850905  0.86099692    -0.03000
C804        C  0.33466259  0.72889198  0.86893561     0.06700
C805        C  0.32161955  0.75817145  0.88698046    -0.03100
C806        C  0.35156035  0.78705322  0.89724848    -0.03100
C807        C  0.39484110  0.78704944  0.88924596     0.06800
C808        C  0.40772396  0.75711745  0.87125045    -0.03300
Br809      Br  0.46703144  0.75312418  0.86124480    -0.01800
Br810      Br  0.39430096  0.68912464  0.83559183    -0.01900
Br811      Br  0.33193067  0.82766396  0.92142924    -0.01900
Br812      Br  0.26219178  0.75962580  0.89708314    -0.01900
C813        C  0.37277487  0.95339264  0.86342244    -0.03000
C814        C  0.40273337  0.96709535  0.88090460     0.06700
C815        C  0.40312070  0.51040524  0.88857879    -0.03100
C816        C  0.37276543  0.53981847  0.87933654    -0.03100
C817        C  0.34163535  0.52594720  0.86229057     0.06800
C818        C  0.34205185  0.98245171  0.85430653    -0.03300
Br819      Br  0.29842937  0.96095466  0.83249923    -0.01800
Br820      Br  0.37335901  0.89421034  0.85235164    -0.01900
Br821      Br  0.37488512  0.59920741  0.88990018    -0.01900
Br822      Br  0.44546894  0.52904544  0.91188415    -0.01900
C823        C  0.17327744  0.49991844  0.88892962    -0.03000
C824        C  0.16130491  0.52598283  0.86933465     0.06700
C825        C  0.12025162  0.02194083  0.85908482    -0.03100
C826        C  0.09081822  0.99170025  0.86835384    -0.03100
C827        C  0.10257910  0.96510797  0.88802117     0.06800
C828        C  0.14425995  0.96914486  0.89813346    -0.03300
Br829      Br  0.16376985  0.93050990  0.92319157    -0.01800
Br830      Br  0.23017804  0.50558405  0.90260650    -0.01900
Br831      Br  0.03428086  0.98826828  0.85407817    -0.01900
Br832      Br  0.10427326  0.05857212  0.83248984    -0.01900
O833        O  0.91922718  0.41574980  0.91099410    -0.82900
C834        C  0.56699235  0.31729593  0.89652358     0.96400
O835        O  0.53154564  0.32344353  0.88621673    -0.72100
O836        O  0.94914391  0.34002959  0.88348461    -0.75600
Al837      Al  0.49943706  0.37526464  0.88678517     1.49000
C838        C  0.92557313  0.32009191  0.89833856     0.91700
O839        O  0.96481730  0.34639142  0.96187472    -0.81900
O840        O  0.52864306  0.41640865  0.96079582    -0.75400
Al841      Al  0.94798978  0.38101874  0.93461567     1.90100
O842        O  0.53147892  0.32802403  0.95408189    -0.74500
O843        O  0.56881235  0.42701852  0.91999937    -0.74300
O844        O  0.57797734  0.33957619  0.91461275    -0.80000
O845        O  0.55001755  0.40996852  0.88309642    -0.78200
O846        O  0.49822737  0.37790072  0.91907707    -1.14300
O847        O  0.96738128  0.42682531  0.88274934    -0.73500
C848        C  0.93159546  0.43526327  0.89224371     0.97200
C849        C  0.49720760  0.32302859  0.96597983     0.93600
Al850      Al  0.54733473  0.37764925  0.93590343     1.55600
O851        O  0.92704246  0.32914889  0.92053953    -0.78200
C852        C  0.57199033  0.43257520  0.89756205     0.97700
C853        C  0.99629121  0.44061409  0.96276761     0.92600
O854        O  0.96293111  0.43363039  0.95042277    -0.83500
O855        O  0.69581170  0.19592397  0.83331410    -0.82900
C856        C  0.80751851  0.05591934  0.85373649     0.96400
O857        O  0.78679564  0.07821236  0.86895205    -0.72100
O858        O  0.79827116  0.16203465  0.86831369    -0.75600
Al859      Al  0.74871981  0.12677725  0.86639431     1.49000
C860        C  0.80345945  0.19826060  0.85859053     0.91700
O861        O  0.79903194  0.16316991  0.80136976    -0.81900
O862        O  0.69378496  0.09156497  0.80158135    -0.75400
Al863      Al  0.74702346  0.17705232  0.81805834     1.90100
O864        O  0.78040656  0.09801076  0.79069052    -0.74500
O865        O  0.71247525  0.04594634  0.84005928    -0.74300
O866        O  0.79848320  0.05788058  0.83152975    -0.80000
O867        O  0.69949436  0.09165739  0.86940585    -0.78200
O868        O  0.74722401  0.12715202  0.83410372    -1.14300
O869        O  0.71084268  0.17502742  0.87029824    -0.73500
C870        C  0.68876698  0.19724787  0.85577350     0.97200
C871        C  0.80504555  0.13022770  0.78831919     0.93600
Al872      Al  0.74630185  0.07771490  0.81745566     1.55600
O873        O  0.78176900  0.20898103  0.84040765    -0.78200
C874        C  0.69248113  0.05631645  0.85897434     0.97700
C875        C  0.68738070  0.12497719  0.78915595     0.92600
O876        O  0.71116521  0.15782529  0.79169136    -0.83500
O877        O  0.82179147  0.41961388  0.58211406    -0.82900
C878        C  0.67907227  0.31153438  0.60496768     0.96400
O879        O  0.70385541  0.33053111  0.61949361    -0.72100
O880        O  0.78489107  0.31294179  0.61465119    -0.75600
Al881      Al  0.75385791  0.36548551  0.61568207     1.49000
C882        C  0.82083237  0.30692521  0.60479150     0.91700
O883        O  0.78550886  0.31801467  0.54992710    -0.81900
O884        O  0.71732386  0.42359037  0.55155174    -0.75400
Al885      Al  0.80105298  0.36868678  0.56673901     1.90100
O886        O  0.71875558  0.33599850  0.54166363    -0.74500
O887        O  0.67463006  0.40829627  0.59149488    -0.74300
O888        O  0.67918000  0.32088848  0.58280990    -0.80000
O889        O  0.72199072  0.41688405  0.62052542    -0.78200
O890        O  0.75195846  0.36892483  0.58359383    -1.14300
O891        O  0.80480723  0.40033508  0.61916080    -0.73500
C892        C  0.82574773  0.42402194  0.60470171     0.97200
C893        C  0.75134179  0.31256506  0.53806983     0.93600
Al894      Al  0.70178370  0.37195069  0.56820395     1.55600
O895        O  0.83312051  0.33239062  0.58842653    -0.78200
C896        C  0.68705947  0.42699861  0.61054631     0.97700
C897        C  0.74930957  0.42858089  0.53787371     0.92600
O898        O  0.78136171  0.40429433  0.54062365    -0.83500
O899        O  0.54887644  0.19132114  0.66852930    -0.82900
C900        C  0.94760430  0.04323184  0.64707552     0.96400
O901        O  0.97275980  0.06307342  0.63302333    -0.72100
O902        O  0.95244619  0.14523087  0.63132496    -0.75600
Al903      Al  0.50492067  0.11544980  0.63651108     1.49000
C904        C  0.94193592  0.18085818  0.64069978     0.91700
O905        O  0.94593174  0.15535770  0.69977196    -0.81900
O906        O  0.54950539  0.08561490  0.70361841    -0.75400
Al907      Al  0.99762834  0.16959428  0.68322240     1.90100
O908        O  0.96290961  0.09082689  0.71128358    -0.74500
O909        O  0.53700523  0.03753308  0.66454322    -0.74300
O910        O  0.94959641  0.04905310  0.66966771    -0.80000
O911        O  0.55801399  0.08580509  0.63852472    -0.78200
O912        O  0.50067615  0.11859445  0.66856945    -1.14300
O913        O  0.53775327  0.16676313  0.63197059    -0.73500
C914        C  0.55729754  0.19154600  0.64626136     0.97200
C915        C  0.93952094  0.12380132  0.71353689     0.93600
Al916      Al  0.49975978  0.06997853  0.68581773     1.55600
O917        O  0.96124376  0.19527255  0.65919489    -0.78200
C918        C  0.56278251  0.04934747  0.64811119     0.97700
C919        C  0.55568937  0.12053391  0.71495401     0.92600
O920        O  0.53335921  0.15365482  0.71032725    -0.83500
O921        O  0.82088348  0.07594165  0.42022899    -0.82900
C922        C  0.67513347  0.17906311  0.39712818     0.96400
O923        O  0.69888886  0.15819157  0.38280416    -0.72100
O924        O  0.77998511  0.18040624  0.38689472    -0.75600
Al925      Al  0.75129794  0.12633885  0.38710574     1.49000
C926        C  0.81620382  0.18740073  0.39635194     0.91700
O927        O  0.78352977  0.17651916  0.45273176    -0.81900
O928        O  0.71568885  0.07101309  0.45176703    -0.75400
Al929      Al  0.79933992  0.12636002  0.43563345     1.90100
O930        O  0.71659794  0.15844117  0.46099044    -0.74500
O931        O  0.67284887  0.08428184  0.41167871    -0.74300
O932        O  0.67707227  0.17237015  0.41958095    -0.80000
O933        O  0.72261322  0.07232744  0.38436632    -0.78200
O934        O  0.75002771  0.12488116  0.41921874    -1.14300
O935        O  0.80438273  0.09501439  0.38328494    -0.73500
C936        C  0.82584840  0.07211027  0.39771957     0.97200
C937        C  0.74940133  0.18167925  0.46462821     0.93600
Al938      Al  0.69985612  0.12182265  0.43471151     1.55600
O939        O  0.82914935  0.16364841  0.41336429    -0.78200
C940        C  0.68712726  0.06258439  0.39404774     0.97700
C941        C  0.74865577  0.06545949  0.46459741     0.92600
O942        O  0.78093412  0.08971702  0.46173668    -0.83500
O943        O  0.95391165  0.44982736  0.33520900    -0.82900
C944        C  0.55331347  0.29876049  0.35513958     0.96400
O945        O  0.53280027  0.32232455  0.36958877    -0.72100
O946        O  0.55475310  0.40368529  0.36726831    -0.75600
Al947      Al  0.00122745  0.37463634  0.36601412     1.49000
C948        C  0.56436622  0.43889802  0.35725374     0.91700
O949        O  0.54945777  0.41111269  0.29860964    -0.81900
O950        O  0.94843668  0.34214075  0.29912271    -0.75400
Al951      Al  0.50171803  0.42651248  0.31817488     1.90100
O952        O  0.53568112  0.34273058  0.29184882    -0.74500
O953        O  0.95889616  0.29783651  0.33908323    -0.74300
O954        O  0.54694582  0.30149342  0.33272115    -0.80000
O955        O  0.94820438  0.34507752  0.36813221    -0.78200
O956        O  0.50011222  0.37558170  0.33363753    -1.14300
O957        O  0.96952479  0.42673420  0.37136602    -0.73500
C958        C  0.94831417  0.45107398  0.35771049     0.97200
C959        C  0.55679454  0.37654243  0.28733641     0.93600
Al960      Al  0.99765388  0.32563739  0.31714917     1.55600
O961        O  0.54230501  0.45284154  0.33978812    -0.78200
C962        C  0.93860444  0.31020854  0.35762283     0.97700
C963        C  0.94013036  0.37744787  0.28891638     0.92600
O964        O  0.96160193  0.41103419  0.29353544    -0.83500
O965        O  0.57017093  0.18175173  0.08263052    -0.82900
C966        C  0.93190975  0.06926451  0.10636563     0.96400
O967        O  0.95431471  0.09164132  0.12069236    -0.72100
O968        O  0.53793524  0.08135948  0.11862950    -0.75600
Al969      Al  0.00180944  0.13021303  0.11648549     1.49000
C970        C  0.57239343  0.07412034  0.10740826     0.91700
O971        O  0.53666434  0.08061892  0.04858307    -0.81900
O972        O  0.96108726  0.17999478  0.05104871    -0.75400
Al973      Al  0.54983409  0.13121811  0.06697287     1.90100
O974        O  0.96857075  0.09297564  0.04195013    -0.74500
O975        O  0.91887030  0.16233490  0.09130109    -0.74300
O976        O  0.93314160  0.07617841  0.08394111    -0.80000
O977        O  0.96597242  0.17928006  0.11915052    -0.78200
O978        O  0.00071184  0.12980858  0.08397544    -1.14300
O979        O  0.54931711  0.16880435  0.11964820    -0.73500
C980        C  0.57183695  0.18993488  0.10489063     0.97200
C981        C  0.00244371  0.07242050  0.03726876     0.93600
Al982      Al  0.95015031  0.12805900  0.06847199     1.55600
O983        O  0.58151143  0.09424992  0.08825764    -0.78200
C984        C  0.92967445  0.18408043  0.10958284     0.97700
C985        C  0.49451099  0.18963752  0.03923699     0.92600
O986        O  0.52903543  0.16899976  0.04221700    -0.83500
O987        O  0.78772272  0.45985885  0.16494059    -0.82900
C988        C  0.69400128  0.31129314  0.14446774     0.96400
O989        O  0.70114085  0.34734531  0.13481183    -0.72100
O990        O  0.71769885  0.43038193  0.13338664    -0.75600
Al991      Al  0.75238955  0.37988809  0.13774590     1.49000
C992        C  0.69464903  0.45250806  0.14745986     0.91700
O993        O  0.71088307  0.41015130  0.21113578    -0.81900
O994        O  0.78469567  0.34786079  0.21251507    -0.75400
Al995      Al  0.74942611  0.42947178  0.18640590     1.90100
O996        O  0.69817967  0.34213269  0.20247122    -0.74500
O997        O  0.80124916  0.30921245  0.17120740    -0.74300
O998        O  0.71482400  0.29914742  0.16276388    -0.80000
O999        O  0.78729744  0.32948532  0.13422685    -0.78200
O1000       O  0.75065494  0.37951793  0.17008103    -1.14300
O1001       O  0.80388789  0.41245238  0.13679793    -0.73500
C1002       C  0.81026949  0.44819333  0.14706937     0.97200
C1003       C  0.68945518  0.37591246  0.21415267     0.93600
Al1004     Al  0.74978123  0.32916274  0.18587773     1.55600
O1005       O  0.69975928  0.44954631  0.16995781    -0.78200
C1006       C  0.80833153  0.30665732  0.14882994     0.97700
C1007       C  0.80564921  0.38194486  0.21692745     0.92600
O1008       O  0.79861729  0.41611844  0.20529696    -0.83500
C1009       C  0.61881658  0.28417426  0.14060734    -0.03000
C1010       C  0.66220545  0.28193970  0.13365760     0.06700
C1011       C  0.67569815  0.25081317  0.11676435    -0.03100
C1012       C  0.64582264  0.22172895  0.10675193    -0.03100
C1013       C  0.60223225  0.22307524  0.11401928     0.06800
C1014       C  0.58883835  0.25451012  0.13104553    -0.03300
Br1015     Br  0.52954392  0.25795668  0.14114182    -0.01800
Br1016     Br  0.60102901  0.32773271  0.16352394    -0.01900
Br1017     Br  0.66595516  0.17838031  0.08427990    -0.01900
Br1018     Br  0.73558575  0.24728509  0.10778641    -0.01900
C1019       C  0.86760763  0.20164633  0.13654338    -0.03000
C1020       C  0.89915230  0.21534321  0.11992605     0.06700
C1021       C  0.90094280  0.25875995  0.11273894    -0.03100
C1022       C  0.87154629  0.28878265  0.12228079    -0.03100
C1023       C  0.84030319  0.27548272  0.13934204     0.06800
C1024       C  0.83818001  0.23155902  0.14622669    -0.03300
Br1025     Br  0.79297344  0.21119744  0.16739262    -0.01800
Br1026     Br  0.86434344  0.14166296  0.14578281    -0.01900
Br1027     Br  0.87496476  0.34813184  0.11197242    -0.01900
Br1028     Br  0.94350923  0.27663955  0.08939410    -0.01900
C1029       C  0.91527334  0.00654876  0.13384001    -0.03000
C1030       C  0.90176368  0.03660440  0.11621046     0.06700
C1031       C  0.85815746  0.03731654  0.10906309    -0.03100
C1032       C  0.82854180  0.00838972  0.11937493    -0.03100
C1033       C  0.84207209  0.47828077  0.13671924     0.06800
C1034       C  0.88549130  0.47703354  0.14377084    -0.03300
Br1035     Br  0.90395678  0.43484506  0.16701552    -0.01800
Br1036     Br  0.97446211  0.50504402  0.14433620    -0.01900
Br1037     Br  0.76893214  0.01051572  0.10987573    -0.01900
Br1038     Br  0.83744196  0.07999634  0.08651789    -0.01900
C1039       C  0.65807506  0.02512546  0.14748054    -0.03000
C1040       C  0.66250476  0.48326636  0.13738214     0.06700
C1041       C  0.63711659  0.47181031  0.11704865    -0.03100
C1042       C  0.60849678  0.50195134  0.10684706    -0.03100
C1043       C  0.60337156  0.04289707  0.11747273     0.06800
C1044       C  0.62793156  0.05428558  0.13789096    -0.03300
Br1045     Br  0.62124753  0.11078497  0.15226831    -0.01800
Br1046     Br  0.69525979  0.04462995  0.17329496    -0.01900
Br1047     Br  0.57560850  0.48720535  0.07841109    -0.01900
Br1048     Br  0.63912344  0.41423307  0.10366146    -0.01900
C1049       C  0.58670847  0.40279260  0.24794285    -0.03000
C1050       C  0.59021901  0.37564585  0.26828540     0.06700
C1051       C  0.62541615  0.34720611  0.27010614    -0.03100
C1052       C  0.65805733  0.34768285  0.25248229    -0.03100
C1053       C  0.65468762  0.37505217  0.23229754     0.06800
C1054       C  0.61853152  0.40196265  0.22980315    -0.03300
Br1055     Br  0.61137613  0.43589310  0.20091074    -0.01800
Br1056     Br  0.53714445  0.43948837  0.24419290    -0.01900
Br1057     Br  0.70861546  0.31241911  0.25670591    -0.01900
Br1058     Br  0.62975411  0.30786899  0.29685867    -0.01900
C1059       C  0.86576311  0.39868551  0.27612746    -0.03000
C1060       C  0.90555571  0.37924062  0.27066120     0.06700
C1061       C  0.91242426  0.36121382  0.24759932    -0.03100
C1062       C  0.87936550  0.36148838  0.23027629    -0.03100
C1063       C  0.83968530  0.38117110  0.23556165     0.06800
C1064       C  0.83276965  0.39953407  0.25861564    -0.03300
Br1065     Br  0.77748791  0.42386963  0.26656310    -0.01800
Br1066     Br  0.85647485  0.42351939  0.30771998    -0.01900
Br1067     Br  0.88841223  0.33442967  0.19929277    -0.01900
Br1068     Br  0.96792701  0.33780437  0.23934186    -0.01900
C1069       C  0.65791134  0.25071510  0.37806389    -0.03000
C1070       C  0.64383922  0.21044349  0.38710201     0.06700
C1071       C  0.59994586  0.19915227  0.38524082    -0.03100
C1072       C  0.57076569  0.22716685  0.37369177    -0.03100
C1073       C  0.58477521  0.26767048  0.36506066     0.06800
C1074       C  0.62818201  0.27982535  0.36790822    -0.03300
Br1075     Br  0.64635263  0.33725745  0.35893630    -0.01800
Br1076     Br  0.71783125  0.26639992  0.37973559    -0.01900
Br1077     Br  0.51154357  0.20997573  0.36946859    -0.01900
Br1078     Br  0.57984229  0.14503616  0.39834368    -0.01900
C1079       C  0.87483572  0.24289232  0.40215698    -0.03000
C1080       C  0.84469297  0.22215182  0.38676768     0.06700
C1081       C  0.84411590  0.23312093  0.36187838    -0.03100
C1082       C  0.87243923  0.26479208  0.35288505    -0.03100
C1083       C  0.90476052  0.28216821  0.36785147     0.06800
C1084       C  0.90632020  0.27050471  0.39241862    -0.03300
Br1085     Br  0.95400834  0.28870262  0.41248050    -0.01800
Br1086     Br  0.87277584  0.23591468  0.43684307    -0.01900
Br1087     Br  0.86598308  0.28528863  0.32014550    -0.01900
Br1088     Br  0.80797966  0.20280334  0.33895746    -0.01900
C1089       C  0.84920191  0.49649579  0.38906204    -0.03000
C1090       C  0.85757046  0.04115021  0.38801291     0.06700
C1091       C  0.89612424  0.05620744  0.37746600    -0.03100
C1092       C  0.92621254  0.02662385  0.36804432    -0.03100
C1093       C  0.91723189  0.48194639  0.36834409     0.06800
C1094       C  0.87882327  0.46695096  0.37913973    -0.03300
Br1095     Br  0.86615161  0.40602317  0.37988892    -0.01800
Br1096     Br  0.79623702  0.47616602  0.40338482    -0.01900
Br1097     Br  0.98097775  0.04705426  0.35611207    -0.01900
Br1098     Br  0.90815207  0.11738271  0.37641315    -0.01900
C1099       C  0.62710700  0.48878323  0.35047872    -0.03000
C1100       C  0.60064869  0.46532949  0.36661323     0.06700
C1101       C  0.60738985  0.46970425  0.39176856    -0.03100
C1102       C  0.63860876  0.99874057  0.40049077    -0.03100
C1103       C  0.66086988  0.02633714  0.38442577     0.06800
C1104       C  0.65556457  0.02058379  0.35926976    -0.03300
Br1105     Br  0.68411240  0.05818489  0.33643628    -0.01800
Br1106     Br  0.62644483  0.47607814  0.31629196    -0.01900
Br1107     Br  0.65162010  0.99892261  0.43456981    -0.01900
Br1108     Br  0.57238526  0.43867526  0.41494402    -0.01900
C1109       C  0.71135018  0.01902493  0.49580583    -0.03000
C1110       C  0.74931461  0.03051493  0.48328113     0.06700
C1111       C  0.78761839  0.00783687  0.48854817    -0.03100
C1112       C  0.78826739  0.47598551  0.50682736    -0.03100
C1113       C  0.74948365  0.46277140  0.51847357     0.06800
C1114       C  0.71057862  0.48295879  0.51128188    -0.03300
Br1115     Br  0.65482033  0.45917185  0.51952581    -0.01800
Br1116     Br  0.66074690  0.05503703  0.49420869    -0.01900
Br1117     Br  0.84366019  0.45165682  0.51511679    -0.01900
Br1118     Br  0.83966850  0.01856234  0.47023811    -0.01900
C1119       C  0.75875907  0.23569376  0.52544300    -0.03000
C1120       C  0.74965939  0.27887417  0.51938599     0.06700
C1121       C  0.73945830  0.28984333  0.49535014    -0.03100
C1122       C  0.73800559  0.25752851  0.47752760    -0.03100
C1123       C  0.74820967  0.21474312  0.48351000     0.06800
C1124       C  0.75852288  0.20370646  0.50742881    -0.03300
Br1125     Br  0.77269632  0.14482191  0.51540851    -0.01800
Br1126     Br  0.77004301  0.21996038  0.55849872    -0.01900
Br1127     Br  0.72183098  0.27151587  0.44491205    -0.01900
Br1128     Br  0.73032588  0.34934066  0.48638633    -0.01900
C1129       C  0.60483863  0.29214975  0.61805852    -0.03000
C1130       C  0.64797128  0.27981279  0.61460210     0.06700
C1131       C  0.66158008  0.23852363  0.62201706    -0.03100
C1132       C  0.63192270  0.20948440  0.63245783    -0.03100
C1133       C  0.58900135  0.22220403  0.63627509     0.06800
C1134       C  0.57542824  0.26339357  0.62883436    -0.03300
Br1135     Br  0.51618012  0.28006286  0.63298924    -0.01800
Br1136     Br  0.58636513  0.34913306  0.60877554    -0.01900
Br1137     Br  0.64968763  0.15195490  0.64101326    -0.01900
Br1138     Br  0.72067149  0.22161653  0.61780880    -0.01900
C1139       C  0.88067725  0.25273149  0.59722755    -0.03000
C1140       C  0.84910681  0.27070490  0.61294156     0.06700
C1141       C  0.84526632  0.25375270  0.63670077    -0.03100
C1142       C  0.87272368  0.22061091  0.64444453    -0.03100
C1143       C  0.90723785  0.20713130  0.62991518     0.06800
C1144       C  0.91034353  0.22212511  0.60598395    -0.03300
Br1145     Br  0.95620449  0.20177762  0.58533211    -0.01800
Br1146     Br  0.88364215  0.26808441  0.56340526    -0.01900
Br1147     Br  0.86114316  0.19117987  0.67441986    -0.01900
Br1148     Br  0.80555098  0.27713777  0.66027476    -0.01900
C1149       C  0.84212447  0.99035683  0.62907423    -0.03000
C1150       C  0.85665420  0.45573508  0.61463370     0.06700
C1151       C  0.90111182  0.44986093  0.61093144    -0.03100
C1152       C  0.93087044  0.47847316  0.62159680    -0.03100
C1153       C  0.91634359  0.01251015  0.63653991     0.06800
C1154       C  0.87191084  0.01850951  0.64013632    -0.03300
Br1155     Br  0.85182347  0.06677766  0.65913230    -0.01800
Br1156     Br  0.78134940  0.00048865  0.63281843    -0.01900
Br1157     Br  0.99170884  0.46991158  0.61629099    -0.01900
Br1158     Br  0.92149292  0.40119225  0.59230648    -0.01900
C1159       C  0.61488425  0.02436284  0.61572405    -0.03000
C1160       C  0.59735181  0.01955484  0.63935725     0.06700
C1161       C  0.61230116  0.48495736  0.65397805    -0.03100
C1162       C  0.64162537  0.45463421  0.64452411    -0.03100
C1163       C  0.65927016  0.46044630  0.62134440     0.06800
C1164       C  0.64728326  0.49636734  0.60753923    -0.03300
Br1165     Br  0.67679067  0.50830098  0.57759524    -0.01800
Br1166     Br  0.59293405  0.06583246  0.59273672    -0.01900
Br1167     Br  0.65550796  0.40335796  0.66273150    -0.01900
Br1168     Br  0.59431805  0.47802777  0.68723460    -0.01900
C1169       C  0.61212584  0.14108935  0.77517338    -0.03000
C1170       C  0.65354454  0.12475779  0.77034075     0.06700
C1171       C  0.66302727  0.10819916  0.74723982    -0.03100
C1172       C  0.63132057  0.10749891  0.72908135    -0.03100
C1173       C  0.58935310  0.12251180  0.73401490     0.06800
C1174       C  0.57977337  0.13893707  0.75728967    -0.03300
Br1175     Br  0.52166137  0.15559997  0.76536541    -0.01800
Br1176     Br  0.59995447  0.16713191  0.80613592    -0.01900
Br1177     Br  0.64640907  0.08765851  0.69712265    -0.01900
Br1178     Br  0.72017074  0.08741289  0.74032233    -0.01900
C1179       C  0.88958723  0.16594127  0.74156938    -0.03000
C1180       C  0.90515841  0.12565976  0.73276632     0.06700
C1181       C  0.88837567  0.08724318  0.74316233    -0.03100
C1182       C  0.85853320  0.08914003  0.76238779    -0.03100
C1183       C  0.84048564  0.12911005  0.76978527     0.06800
C1184       C  0.85621747  0.16749391  0.75895077    -0.03300
Br1185     Br  0.83180180  0.22325069  0.76688774    -0.01800
Br1186     Br  0.91478546  0.22032465  0.73144719    -0.01900
Br1187     Br  0.84594737  0.03613262  0.77956138    -0.01900
Br1188     Br  0.90375336  0.03062792  0.73090723    -0.01900
C1189       C  0.52590588  0.01061986  0.97902968    -0.03000
C1190       C  0.99677903  0.47571789  0.98095250     0.06700
C1191       C  0.96935018  0.47295466  0.00112692    -0.03100
C1192       C  0.97152343  0.50427488  0.01956888    -0.03100
C1193       C  0.00144796  0.03865522  0.01812488     0.06800
C1194       C  0.52857987  0.04176086  0.99768284    -0.03300
Br1195     Br  0.56808257  0.08969715  0.99460714    -0.01800
Br1196     Br  0.56005586  0.01735057  0.95012195    -0.01900
Br1197     Br  0.93451164  0.49834455  0.04731468    -0.01900
Br1198     Br  0.92959756  0.42511134  0.00389518    -0.01900
C1199       C  0.51932286  0.29482964  0.00653235    -0.03000
C1200       C  0.49505288  0.28979476  0.98519138     0.06700
C1201       C  0.96920688  0.25263251  0.98215328    -0.03100
C1202       C  0.96911069  0.21988519  0.99981943    -0.03100
C1203       C  0.49336955  0.22487442  0.02115631     0.06800
C1204       C  0.51812027  0.26270905  0.02456612    -0.03300
Br1205     Br  0.54969279  0.27108498  0.05418718    -0.01800
Br1206     Br  0.55339243  0.34637611  0.01132728    -0.01900
Br1207     Br  0.93830562  0.16667782  0.99393786    -0.01900
Br1208     Br  0.93494535  0.24571233  0.95340686    -0.01900
C1209       C  0.65883849  0.27152308  0.85988561    -0.03000
C1210       C  0.65604235  0.22716030  0.86545372     0.06700
C1211       C  0.62361872  0.21233139  0.88136504    -0.03100
C1212       C  0.59454137  0.24184238  0.89181688    -0.03100
C1213       C  0.59745125  0.28600860  0.88613940     0.06800
C1214       C  0.62958159  0.30073097  0.87016562    -0.03300
Br1215     Br  0.63411527  0.36126190  0.86248700    -0.01800
Br1216     Br  0.70429704  0.29327632  0.83931014    -0.01900
Br1217     Br  0.55146501  0.22227886  0.91444258    -0.01900
Br1218     Br  0.61782960  0.15152848  0.88817515    -0.01900
C1219       C  0.87752482  0.22851351  0.86099305    -0.03000
C1220       C  0.83466232  0.22889002  0.86893586     0.06700
C1221       C  0.82162170  0.25816236  0.88698482    -0.03100
C1222       C  0.85156251  0.28704468  0.89725236    -0.03100
C1223       C  0.89484068  0.28704870  0.88924502     0.06800
C1224       C  0.90772135  0.25712231  0.87124600    -0.03300
Br1225     Br  0.96702657  0.25313543  0.86123522    -0.01800
Br1226     Br  0.89429483  0.18913593  0.83558387    -0.01900
Br1227     Br  0.83193529  0.32764432  0.92143969    -0.01900
Br1228     Br  0.76219672  0.25960650  0.89709359    -0.01900
C1229       C  0.87277399  0.45339256  0.86342275    -0.03000
C1230       C  0.90273483  0.46709627  0.88090336     0.06700
C1231       C  0.90312669  0.01040948  0.88857188    -0.03100
C1232       C  0.87276959  0.03982182  0.87933047    -0.03100
C1233       C  0.84163318  0.02594768  0.86228900     0.06800
C1234       C  0.84204992  0.48245115  0.85430762    -0.03300
Br1235     Br  0.79842377  0.46095303  0.83250300    -0.01800
Br1236     Br  0.87335754  0.39421002  0.85235236    -0.01900
Br1237     Br  0.87489438  0.09921317  0.88988932    -0.01900
Br1238     Br  0.94548686  0.02905499  0.91186900    -0.01900
C1239       C  0.67327286  0.99992410  0.88892895    -0.03000
C1240       C  0.66130114  0.02598517  0.86933247     0.06700
C1241       C  0.62025060  0.52193926  0.85908534    -0.03100
C1242       C  0.59081677  0.49170004  0.86835532    -0.03100
C1243       C  0.60257799  0.46510799  0.88802265     0.06800
C1244       C  0.64425914  0.46914500  0.89813465    -0.03300
Br1245     Br  0.66376816  0.43051368  0.92319465    -0.01800
Br1246     Br  0.73017160  0.00559405  0.90260758    -0.01900
Br1247     Br  0.53427787  0.48827021  0.85408141    -0.01900
Br1248     Br  0.60427297  0.55856799  0.83248912    -0.01900
O1249       O  0.91922658  0.91575154  0.91099497    -0.82900
C1250       C  0.56699401  0.81729695  0.89652431     0.96400
O1251       O  0.53154722  0.82344376  0.88621730    -0.72100
O1252       O  0.94914393  0.84002915  0.88348476    -0.75600
Al1253     Al  0.49943817  0.87526513  0.88678495     1.49000
C1254       C  0.92557269  0.82009213  0.89833863     0.91700
O1255       O  0.96481742  0.84639102  0.96187462    -0.81900
O1256       O  0.52864409  0.91641157  0.96079530    -0.75400
Al1257     Al  0.94798925  0.88101946  0.93461609     1.90100
O1258       O  0.53148196  0.82802786  0.95408225    -0.74500
O1259       O  0.56881149  0.92702199  0.91999847    -0.74300
O1260       O  0.57797908  0.83957913  0.91461274    -0.80000
O1261       O  0.55001852  0.90996912  0.88309570    -0.78200
O1262       O  0.49822817  0.87790228  0.91907692    -1.14300
O1263       O  0.96737893  0.92682530  0.88274902    -0.73500
C1264       C  0.93159390  0.93526416  0.89224405     0.97200
C1265       C  0.49721075  0.82303086  0.96597998     0.93600
Al1266     Al  0.54733585  0.87765250  0.93590308     1.55600
O1267       O  0.92704123  0.82914994  0.92053956    -0.78200
C1268       C  0.57199004  0.93257733  0.89756101     0.97700
C1269       C  0.99629131  0.94061515  0.96276798     0.92600
O1270       O  0.96293047  0.93363072  0.95042390    -0.83500
O1271       O  0.69581186  0.69592174  0.83331571    -0.82900
C1272       C  0.80751970  0.55591693  0.85373603     0.96400
O1273       O  0.78679708  0.57820943  0.86895186    -0.72100
O1274       O  0.79827216  0.66203194  0.86831434    -0.75600
Al1275     Al  0.74872080  0.62677411  0.86639494     1.49000
C1276       C  0.80346031  0.69825806  0.85859129     0.91700
O1277       O  0.79903173  0.66316817  0.80137020    -0.81900
O1278       O  0.69378483  0.59156306  0.80158214    -0.75400
Al1279     Al  0.74702350  0.67705027  0.81805937     1.90100
O1280       O  0.78040573  0.59800942  0.79069065    -0.74500
O1281       O  0.71247656  0.54594331  0.84005950    -0.74300
O1282       O  0.79848383  0.55787836  0.83152930    -0.80000
O1283       O  0.69949563  0.59165355  0.86940646    -0.78200
O1284       O  0.74722442  0.62714960  0.83410437    -1.14300
O1285       O  0.71084316  0.67502412  0.87029960    -0.73500
C1286       C  0.68876737  0.69724520  0.85577515     0.97200
C1287       C  0.80504479  0.63022637  0.78831924     0.93600
Al1288     Al  0.74630208  0.57771280  0.81745591     1.55600
O1289       O  0.78176946  0.70897866  0.84040862    -0.78200
C1290       C  0.69248275  0.55631272  0.85897481     0.97700
C1291       C  0.68738078  0.62497536  0.78915683     0.92600
O1292       O  0.71116499  0.65782363  0.79169251    -0.83500
O1293       O  0.82179294  0.91961476  0.58211423    -0.82900
C1294       C  0.67907382  0.81153575  0.60496860     0.96400
O1295       O  0.70385690  0.83053262  0.61949454    -0.72100
O1296       O  0.78489270  0.81294400  0.61465252    -0.75600
Al1297     Al  0.75385923  0.86548755  0.61568291     1.49000
C1298       C  0.82083345  0.80692658  0.60479251     0.91700
O1299       O  0.78550895  0.81801504  0.54992794    -0.81900
O1300       O  0.71732542  0.92359215  0.55155251    -0.75400
Al1301     Al  0.80105386  0.86868751  0.56673956     1.90100
O1302       O  0.71875604  0.83599998  0.54166452    -0.74500
O1303       O  0.67463124  0.90829821  0.59149562    -0.74300
O1304       O  0.67918106  0.82089032  0.58281087    -0.80000
O1305       O  0.72199183  0.91688600  0.62052614    -0.78200
O1306       O  0.75195960  0.86892631  0.58359461    -1.14300
O1307       O  0.80480837  0.90033762  0.61916121    -0.73500
C1308       C  0.82574907  0.92402376  0.60470183     0.97200
C1309       C  0.75134175  0.81256587  0.53807074     0.93600
Al1310     Al  0.70178480  0.87195245  0.56820480     1.55600
O1311       O  0.83312136  0.83239135  0.58842711    -0.78200
C1312       C  0.68706080  0.92700071  0.61054698     0.97700
C1313       C  0.74931083  0.92858217  0.53787422     0.92600
O1314       O  0.78136273  0.90429504  0.54062395    -0.83500
O1315       O  0.54887806  0.69132120  0.66853003    -0.82900
C1316       C  0.94760283  0.54322989  0.64707581     0.96400
O1317       O  0.97275823  0.56307131  0.63302347    -0.72100
O1318       O  0.95244430  0.64522887  0.63132513    -0.75600
Al1319     Al  0.50492279  0.61544909  0.63651215     1.49000
C1320       C  0.94193496  0.68085661  0.64069975     0.91700
O1321       O  0.94593162  0.65535679  0.69977189    -0.81900
O1322       O  0.54950628  0.58561332  0.70361948    -0.75400
Al1323     Al  0.99762829  0.66959260  0.68322220     1.90100
O1324       O  0.96290857  0.59082566  0.71128358    -0.74500
O1325       O  0.53700561  0.53753118  0.66454433    -0.74300
O1326       O  0.94959520  0.54905153  0.66966794    -0.80000
O1327       O  0.55801560  0.58580331  0.63852611    -0.78200
O1328       O  0.50067765  0.61859366  0.66857049    -1.14300
O1329       O  0.53775647  0.66676159  0.63197161    -0.73500
C1330       C  0.55729996  0.69154530  0.64626220     0.97200
C1331       C  0.93951996  0.62380030  0.71353659     0.93600
Al1332     Al  0.49976056  0.56997742  0.68581869     1.55600
O1333       O  0.96124356  0.69527108  0.65919463    -0.78200
C1334       C  0.56278295  0.54934526  0.64811229     0.97700
C1335       C  0.55569093  0.62053270  0.71495463     0.92600
O1336       O  0.53336154  0.65365393  0.71032764    -0.83500
O1337       O  0.82088377  0.57594182  0.42023024    -0.82900
C1338       C  0.67513231  0.67906178  0.39712857     0.96400
O1339       O  0.69888757  0.65818943  0.38280481    -0.72100
O1340       O  0.77998373  0.68040441  0.38689491    -0.75600
Al1341     Al  0.75129688  0.62633699  0.38710664     1.49000
C1342       C  0.81620205  0.68739989  0.39635225     0.91700
O1343       O  0.78352812  0.67651959  0.45273264    -0.81900
O1344       O  0.71568780  0.57101334  0.45176803    -0.75400
Al1345     Al  0.79933887  0.62636033  0.43563439     1.90100
O1346       O  0.71659655  0.65844111  0.46099137    -0.74500
O1347       O  0.67284737  0.58428181  0.41167977    -0.74300
O1348       O  0.67707136  0.67236998  0.41958147    -0.80000
O1349       O  0.72261213  0.57232534  0.38436791    -0.78200
O1350       O  0.75002669  0.62488063  0.41921964    -1.14300
O1351       O  0.80438213  0.59501271  0.38328606    -0.73500
C1352       C  0.82584875  0.57210974  0.39772085     0.97200
C1353       C  0.74939981  0.68167921  0.46462929     0.93600
Al1354     Al  0.69985497  0.62182260  0.43471238     1.55600
O1355       O  0.82914763  0.66364868  0.41336510    -0.78200
C1356       C  0.68712569  0.56258348  0.39404906     0.97700
C1357       C  0.74865487  0.56546002  0.46459839     0.92600
O1358       O  0.78093312  0.58971763  0.46173759    -0.83500
O1359       O  0.95390948  0.94982556  0.33520905    -0.82900
C1360       C  0.55331413  0.79875968  0.35513852     0.96400
O1361       O  0.53280265  0.82232489  0.36958784    -0.72100
O1362       O  0.55475642  0.90368523  0.36726702    -0.75600
Al1363     Al  0.00122467  0.87463464  0.36601430     1.49000
C1364       C  0.56436926  0.93889807  0.35725252     0.91700
O1365       O  0.54945734  0.91111447  0.29860836    -0.81900
O1366       O  0.94843592  0.84213956  0.29912268    -0.75400
Al1367     Al  0.50171904  0.92651391  0.31817468     1.90100
O1368       O  0.53568131  0.84273188  0.29184823    -0.74500
O1369       O  0.95889557  0.79783450  0.33908258    -0.74300
O1370       O  0.54694550  0.80149251  0.33272015    -0.80000
O1371       O  0.94820210  0.84507491  0.36813166    -0.78200
O1372       O  0.50011369  0.87558265  0.33363709    -1.14300
O1373       O  0.96952127  0.92673184  0.37136613    -0.73500
C1374       C  0.94831146  0.95107200  0.35771047     0.97200
C1375       C  0.55679384  0.87654408  0.28733515     0.93600
Al1376     Al  0.99765307  0.82563658  0.31714899     1.55600
O1377       O  0.54230730  0.95284218  0.33978737    -0.78200
C1378       C  0.93860319  0.81020588  0.35762210     0.97700
C1379       C  0.94012957  0.87744677  0.28891649     0.92600
O1380       O  0.96160086  0.91103315  0.29353560    -0.83500
O1381       O  0.57017523  0.68174773  0.08263130    -0.82900
C1382       C  0.93190759  0.56926567  0.10636536     0.96400
O1383       O  0.95431197  0.59164282  0.12069228    -0.72100
O1384       O  0.53793147  0.58135597  0.11862855    -0.75600
Al1385     Al  0.00180754  0.63021397  0.11648576     1.49000
C1386       C  0.57239007  0.57411577  0.10740796     0.91700
O1387       O  0.53666412  0.58061797  0.04858199    -0.81900
O1388       O  0.96108869  0.67999517  0.05104831    -0.75400
Al1389     Al  0.54983589  0.63121583  0.06697266     1.90100
O1390       O  0.96857092  0.59297657  0.04194980    -0.74500
O1391       O  0.91886982  0.66233595  0.09130040    -0.74300
O1392       O  0.93314039  0.57617930  0.08394081    -0.80000
O1393       O  0.96597182  0.67928157  0.11914979    -0.78200
O1394       O  0.00071135  0.62980882  0.08397566    -1.14300
O1395       O  0.54931902  0.66879981  0.11964849    -0.73500
C1396       C  0.57184080  0.68992974  0.10489164     0.97200
C1397       C  0.00244335  0.57242035  0.03726871     0.93600
Al1398     Al  0.95015028  0.62805977  0.06847165     1.55600
O1399       O  0.58151010  0.59424519  0.08825759    -0.78200
C1400       C  0.92967406  0.68408179  0.10958201     0.97700
C1401       C  0.49451640  0.68963885  0.03923673     0.92600
O1402       O  0.52903997  0.66899969  0.04221691    -0.83500
O1403       O  0.78772496  0.95985890  0.16494098    -0.82900
C1404       C  0.69400445  0.81129138  0.14446723     0.96400
O1405       O  0.70114268  0.84734399  0.13481134    -0.72100
O1406       O  0.71770023  0.93038170  0.13338613    -0.75600
Al1407     Al  0.75239121  0.87988802  0.13774581     1.49000
C1408       C  0.69465135  0.95250944  0.14745913     0.91700
O1409       O  0.71088287  0.91015255  0.21113502    -0.81900
O1410       O  0.78469441  0.84786199  0.21251591    -0.75400
Al1411     Al  0.74942720  0.92947260  0.18640570     1.90100
O1412       O  0.69817916  0.84213395  0.20247016    -0.74500
O1413       O  0.80125120  0.80921424  0.17120847    -0.74300
O1414       O  0.71482712  0.79914700  0.16276364    -0.80000
O1415       O  0.78729991  0.82948574  0.13422755    -0.78200
O1416       O  0.75065600  0.87951857  0.17008092    -1.14300
O1417       O  0.80388936  0.91245272  0.13679805    -0.73500
C1418       C  0.81027179  0.94819311  0.14706989     0.97200
C1419       C  0.68945426  0.87591401  0.21415138     0.93600
Al1420     Al  0.74978204  0.82916370  0.18587787     1.55600
O1421       O  0.69976132  0.94954799  0.16995707    -0.78200
C1422       C  0.80833418  0.80665872  0.14883103     0.97700
C1423       C  0.80564861  0.88194570  0.21692808     0.92600
O1424       O  0.79861768  0.91611896  0.20529720    -0.83500
C1425       C  0.61882070  0.78416984  0.14060781    -0.03000
C1426       C  0.66220938  0.78193629  0.13365762     0.06700
C1427       C  0.67570271  0.75080733  0.11676585    -0.03100
C1428       C  0.64582771  0.72172106  0.10675465    -0.03100
C1429       C  0.60223691  0.72306862  0.11402115     0.06800
C1430       C  0.58884292  0.75450427  0.13104700    -0.03300
Br1431     Br  0.52954914  0.75794900  0.14114486    -0.01800
Br1432     Br  0.60103292  0.82772919  0.16352377    -0.01900
Br1433     Br  0.66596099  0.67836691  0.08428606    -0.01900
Br1434     Br  0.73559039  0.74727896  0.10778839    -0.01900
C1435       C  0.86760967  0.70164791  0.13654396    -0.03000
C1436       C  0.89915221  0.71534446  0.11992531     0.06700
C1437       C  0.90094267  0.75876112  0.11273815    -0.03100
C1438       C  0.87154799  0.78878427  0.12228130    -0.03100
C1439       C  0.84030628  0.77548446  0.13934345     0.06800
C1440       C  0.83818364  0.73156091  0.14622843    -0.03300
Br1441     Br  0.79298028  0.71120001  0.16739676    -0.01800
Br1442     Br  0.86434611  0.64166458  0.14578353    -0.01900
Br1443     Br  0.87496772  0.84813402  0.11197370    -0.01900
Br1444     Br  0.94350640  0.77663987  0.08939143    -0.01900
C1445       C  0.91527091  0.50654896  0.13383922    -0.03000
C1446       C  0.90176130  0.53660534  0.11621005     0.06700
C1447       C  0.85815500  0.53731779  0.10906282    -0.03100
C1448       C  0.82853910  0.50839121  0.11937481    -0.03100
C1449       C  0.84207464  0.97828032  0.13671992     0.06800
C1450       C  0.88549355  0.97703420  0.14377219    -0.03300
Br1451     Br  0.90395847  0.93484929  0.16701893    -0.01800
Br1452     Br  0.97446486  0.00504339  0.14433656    -0.01900
Br1453     Br  0.76892905  0.51051864  0.10987646    -0.01900
Br1454     Br  0.83744011  0.57999766  0.08651753    -0.01900
C1455       C  0.65807143  0.52512300  0.14748083    -0.03000
C1456       C  0.66250851  0.98326925  0.13738112     0.06700
C1457       C  0.63712187  0.97181517  0.11704670    -0.03100
C1458       C  0.60850293  0.00195720  0.10684521    -0.03100
C1459       C  0.60336681  0.54289233  0.11747335     0.06800
C1460       C  0.62792737  0.55428227  0.13789112    -0.03300
Br1461     Br  0.62124284  0.61078204  0.15226794    -0.01800
Br1462     Br  0.69525733  0.54462931  0.17329424    -0.01900
Br1463     Br  0.57561798  0.98721405  0.07840751    -0.01900
Br1464     Br  0.63912903  0.91423887  0.10365820    -0.01900
C1465       C  0.58670634  0.90279334  0.24794083    -0.03000
C1466       C  0.59021764  0.87564751  0.26828379     0.06700
C1467       C  0.62541569  0.84720908  0.27010499    -0.03100
C1468       C  0.65805688  0.84768604  0.25248123    -0.03100
C1469       C  0.65468628  0.87505390  0.23229595     0.06800
C1470       C  0.61852955  0.90196351  0.22980115    -0.03300
Br1471     Br  0.61137432  0.93589371  0.20090858    -0.01800
Br1472     Br  0.53714136  0.93948772  0.24419039    -0.01900
Br1473     Br  0.70861656  0.81242489  0.25670574    -0.01900
Br1474     Br  0.62975489  0.80787351  0.29685814    -0.01900
C1475       C  0.86576115  0.89868113  0.27612882    -0.03000
C1476       C  0.90555488  0.87923957  0.27066151     0.06700
C1477       C  0.91242448  0.86121616  0.24759891    -0.03100
C1478       C  0.87936580  0.86149146  0.23027589    -0.03100
C1479       C  0.83968461  0.88117146  0.23556216     0.06800
C1480       C  0.83276780  0.89953066  0.25861699    -0.03300
Br1481     Br  0.77748510  0.92386319  0.26656527    -0.01800
Br1482     Br  0.85647136  0.92350876  0.30772282    -0.01900
Br1483     Br  0.88841363  0.83443646  0.19929138    -0.01900
Br1484     Br  0.96792808  0.83780956  0.23934061    -0.01900
C1485       C  0.65791087  0.75071367  0.37806405    -0.03000
C1486       C  0.64383837  0.71044200  0.38710189     0.06700
C1487       C  0.59994516  0.69915060  0.38523974    -0.03100
C1488       C  0.57076557  0.72716535  0.37369032    -0.03100
C1489       C  0.58477546  0.76766904  0.36505945     0.06800
C1490       C  0.62818211  0.77982385  0.36790783    -0.03300
Br1491     Br  0.64635336  0.83725587  0.35893630    -0.01800
Br1492     Br  0.71783069  0.76639864  0.37973686    -0.01900
Br1493     Br  0.51154360  0.70997473  0.36946658    -0.01900
Br1494     Br  0.57984112  0.64503393  0.39834170    -0.01900
C1495       C  0.87483464  0.74289067  0.40215650    -0.03000
C1496       C  0.84469111  0.72215061  0.38676758     0.06700
C1497       C  0.84411386  0.73311908  0.36187816    -0.03100
C1498       C  0.87243782  0.76478935  0.35288442    -0.03100
C1499       C  0.90475996  0.78216468  0.36785054     0.06800
C1500       C  0.90632058  0.77050056  0.39241758    -0.03300
Br1501     Br  0.95401255  0.78869268  0.41247816    -0.01800
Br1502     Br  0.87277340  0.73591691  0.43684286    -0.01900
Br1503     Br  0.86598190  0.78528509  0.32014463    -0.01900
Br1504     Br  0.80797589  0.70280238  0.33895778    -0.01900
C1505       C  0.84920065  0.99649589  0.38906209    -0.03000
C1506       C  0.85757185  0.54115023  0.38801434     0.06700
C1507       C  0.89612655  0.55620811  0.37746869    -0.03100
C1508       C  0.92621528  0.52662517  0.36804667    -0.03100
C1509       C  0.91722975  0.98194501  0.36834377     0.06800
C1510       C  0.87882212  0.96695025  0.37914076    -0.03300
Br1511     Br  0.86615201  0.90602225  0.37989325    -0.01800
Br1512     Br  0.79623523  0.97616734  0.40338483    -0.01900
Br1513     Br  0.98098171  0.54705622  0.35611658    -0.01900
Br1514     Br  0.90815503  0.61738339  0.37641803    -0.01900
C1515       C  0.62710989  0.98878332  0.35047722    -0.03000
C1516       C  0.60065200  0.96532923  0.36661180     0.06700
C1517       C  0.60739355  0.96970356  0.39176710    -0.03100
C1518       C  0.63860532  0.49874105  0.40049224    -0.03100
C1519       C  0.66086734  0.52633682  0.38442723     0.06800
C1520       C  0.65556195  0.52058344  0.35927122    -0.03300
Br1521     Br  0.68411028  0.55818398  0.33643772    -0.01800
Br1522     Br  0.62644748  0.97607847  0.31629037    -0.01900
Br1523     Br  0.65161550  0.49892420  0.43457144    -0.01900
Br1524     Br  0.57238986  0.93867365  0.41494260    -0.01900
C1525       C  0.71134946  0.51902502  0.49580641    -0.03000
C1526       C  0.74931399  0.53051557  0.48328203     0.06700
C1527       C  0.78761792  0.50783777  0.48854913    -0.03100
C1528       C  0.78826827  0.97598621  0.50682733    -0.03100
C1529       C  0.74948472  0.96277238  0.51847380     0.06800
C1530       C  0.71057955  0.98295940  0.51128191    -0.03300
Br1531     Br  0.65482139  0.95917317  0.51952674    -0.01800
Br1532     Br  0.66074669  0.55503799  0.49421013    -0.01900
Br1533     Br  0.84366156  0.95166038  0.51511822    -0.01900
Br1534     Br  0.83966932  0.51856687  0.47024096    -0.01900
C1535       C  0.75875718  0.73569413  0.52544423    -0.03000
C1536       C  0.74965828  0.77887460  0.51938704     0.06700
C1537       C  0.73945615  0.78984331  0.49535127    -0.03100
C1538       C  0.73800287  0.75752820  0.47752886    -0.03100
C1539       C  0.74820780  0.71474303  0.48351122     0.06800
C1540       C  0.75852081  0.70370661  0.50743011    -0.03300
Br1541     Br  0.77269355  0.64482218  0.51541012    -0.01800
Br1542     Br  0.77003929  0.71996102  0.55850017    -0.01900
Br1543     Br  0.72182561  0.77151464  0.44491365    -0.01900
Br1544     Br  0.73032278  0.84934036  0.48638724    -0.01900
C1545       C  0.60483946  0.79214827  0.61805717    -0.03000
C1546       C  0.64797322  0.77981337  0.61460290     0.06700
C1547       C  0.66158298  0.73852527  0.62201920    -0.03100
C1548       C  0.63192569  0.70948542  0.63245966    -0.03100
C1549       C  0.58900358  0.72220368  0.63627568     0.06800
C1550       C  0.57542934  0.76339174  0.62883304    -0.03300
Br1551     Br  0.51617988  0.78005835  0.63298492    -0.01800
Br1552     Br  0.58636365  0.84912919  0.60877103    -0.01900
Br1553     Br  0.64969158  0.65195653  0.64101561    -0.01900
Br1554     Br  0.72067515  0.72161979  0.61781242    -0.01900
C1555       C  0.88067679  0.75273135  0.59722796    -0.03000
C1556       C  0.84910749  0.77070569  0.61294233     0.06700
C1557       C  0.84526699  0.75375315  0.63670149    -0.03100
C1558       C  0.87272331  0.72061010  0.64444477    -0.03100
C1559       C  0.90723698  0.70713006  0.62991524     0.06800
C1560       C  0.91034232  0.72212385  0.60598398    -0.03300
Br1561     Br  0.95620108  0.70177407  0.58533139    -0.01800
Br1562     Br  0.88364098  0.76808440  0.56340563    -0.01900
Br1563     Br  0.86114135  0.69117730  0.67441934    -0.01900
Br1564     Br  0.80555335  0.77713939  0.66027602    -0.01900
C1565       C  0.84212292  0.49035448  0.62907456    -0.03000
C1566       C  0.85665560  0.95573728  0.61463343     0.06700
C1567       C  0.90111315  0.94986366  0.61093064    -0.03100
C1568       C  0.93087178  0.97847601  0.62159585    -0.03100
C1569       C  0.91634212  0.51250784  0.63654042     0.06800
C1570       C  0.87190927  0.51850719  0.64013665    -0.03300
Br1571     Br  0.85182163  0.56677516  0.65913250    -0.01800
Br1572     Br  0.78134764  0.50048545  0.63281932    -0.01900
Br1573     Br  0.99170998  0.96991546  0.61628901    -0.01900
Br1574     Br  0.92149430  0.90119579  0.59230503    -0.01900
C1575       C  0.61487825  0.52435701  0.61572332    -0.03000
C1576       C  0.59735086  0.51955189  0.63935775     0.06700
C1577       C  0.61229852  0.98495784  0.65397697    -0.03100
C1578       C  0.64162357  0.95463511  0.64452353    -0.03100
C1579       C  0.65927175  0.96044883  0.62134481     0.06800
C1580       C  0.64728857  0.99637185  0.60754027    -0.03300
Br1581     Br  0.67679957  0.00830519  0.57759724    -0.01800
Br1582     Br  0.59291839  0.56581925  0.59273475    -0.01900
Br1583     Br  0.65550291  0.90335697  0.66273005    -0.01900
Br1584     Br  0.59430950  0.97802360  0.68723226    -0.01900
C1585       C  0.61212623  0.64108710  0.77517416    -0.03000
C1586       C  0.65354511  0.62475619  0.77034148     0.06700
C1587       C  0.66302859  0.60819889  0.74724035    -0.03100
C1588       C  0.63132214  0.60749890  0.72908178    -0.03100
C1589       C  0.58935445  0.62251081  0.73401546     0.06800
C1590       C  0.57977419  0.63893560  0.75729023    -0.03300
Br1591     Br  0.52166247  0.65560057  0.76536541    -0.01800
Br1592     Br  0.59995392  0.66712743  0.80613718    -0.01900
Br1593     Br  0.64641113  0.58766045  0.69712283    -0.01900
Br1594     Br  0.72017246  0.58741387  0.74032270    -0.01900
C1595       C  0.88958605  0.66594029  0.74156908    -0.03000
C1596       C  0.90515648  0.62565884  0.73276548     0.06700
C1597       C  0.88837187  0.58724214  0.74316030    -0.03100
C1598       C  0.85852986  0.58913856  0.76238599    -0.03100
C1599       C  0.84048417  0.62910871  0.76978480     0.06800
C1600       C  0.85621678  0.66749285  0.75895083    -0.03300
Br1601     Br  0.83180257  0.72324975  0.76688899    -0.01800
Br1602     Br  0.91478396  0.72032370  0.73144666    -0.01900
Br1603     Br  0.84594200  0.53612972  0.77955777    -0.01900
Br1604     Br  0.90374513  0.53062759  0.73090237    -0.01900
C1605       C  0.52590940  0.51061695  0.97902956    -0.03000
C1606       C  0.99677954  0.97571815  0.98095317     0.06700
C1607       C  0.96936041  0.97294735  0.00113141    -0.03100
C1608       C  0.97153413  0.00426740  0.01957337    -0.03100
C1609       C  0.00144699  0.53865498  0.01812454     0.06800
C1610       C  0.52858313  0.54175852  0.99768245    -0.03300
Br1611     Br  0.56809102  0.58969074  0.99460806    -0.01800
Br1612     Br  0.56006397  0.51734411  0.95012323    -0.01900
Br1613     Br  0.93453738  0.99832721  0.04732478    -0.01900
Br1614     Br  0.92962103  0.92509397  0.00390457    -0.01900
C1615       C  0.51932993  0.79483036  0.00653174    -0.03000
C1616       C  0.49505740  0.78979681  0.98519150     0.06700
C1617       C  0.96921090  0.75263161  0.98215251    -0.03100
C1618       C  0.96911424  0.71988446  0.99981880    -0.03100
C1619       C  0.49337603  0.72487554  0.02115591     0.06800
C1620       C  0.51812783  0.76270948  0.02456542    -0.03300
Br1621     Br  0.54970191  0.77108404  0.05418610    -0.01800
Br1622     Br  0.55340184  0.84637547  0.01132602    -0.01900
Br1623     Br  0.93830896  0.66667719  0.99393731    -0.01900
Br1624     Br  0.93495344  0.74570943  0.95340469    -0.01900
C1625       C  0.65884113  0.77152132  0.85988798    -0.03000
C1626       C  0.65604344  0.72715847  0.86545572     0.06700
C1627       C  0.62361921  0.71233055  0.88136698    -0.03100
C1628       C  0.59454249  0.74184244  0.89181872    -0.03100
C1629       C  0.59745315  0.78600861  0.88614099     0.06800
C1630       C  0.62958474  0.80073005  0.87016775    -0.03300
Br1631     Br  0.63412052  0.86126098  0.86248952    -0.01800
Br1632     Br  0.70430130  0.79327349  0.83931336    -0.01900
Br1633     Br  0.55146700  0.72228023  0.91444527    -0.01900
Br1634     Br  0.61782845  0.65152784  0.88817713    -0.01900
C1635       C  0.87752644  0.72850960  0.86099509    -0.03000
C1636       C  0.83466317  0.72888770  0.86893665     0.06700
C1637       C  0.82162148  0.75816239  0.88698420    -0.03100
C1638       C  0.85156165  0.78704614  0.89725112    -0.03100
C1639       C  0.89484051  0.78704842  0.88924518     0.06800
C1640       C  0.90772245  0.75711947  0.87124776    -0.03300
Br1641     Br  0.96702830  0.75313157  0.86123847    -0.01800
Br1642     Br  0.89429840  0.68912795  0.83558822    -0.01900
Br1643     Br  0.83193284  0.82765044  0.92143555    -0.01900
Br1644     Br  0.76219622  0.75960686  0.89709235    -0.01900
C1645       C  0.87277188  0.95339419  0.86342339    -0.03000
C1646       C  0.90273303  0.96709746  0.88090395     0.06700
C1647       C  0.90312813  0.51040831  0.88857121    -0.03100
C1648       C  0.87277188  0.53982062  0.87932901    -0.03100
C1649       C  0.84163495  0.52594573  0.86228803     0.06800
C1650       C  0.84204834  0.98245329  0.85430812    -0.03300
Br1651     Br  0.79842326  0.96095623  0.83250248    -0.01800
Br1652     Br  0.87335383  0.89421133  0.85235345    -0.01900
Br1653     Br  0.87489897  0.59921314  0.88988556    -0.01900
Br1654     Br  0.94548572  0.52905370  0.91186988    -0.01900
C1655       C  0.67327565  0.49991781  0.88892825    -0.03000
C1656       C  0.66130311  0.52598079  0.86933273     0.06700
C1657       C  0.62024955  0.02194178  0.85908414    -0.03100
C1658       C  0.59081652  0.99170103  0.86835341    -0.03100
C1659       C  0.60257729  0.96511040  0.88802151     0.06800
C1660       C  0.64425718  0.96915000  0.89813476    -0.03300
Br1661     Br  0.66376631  0.93052024  0.92319569    -0.01800
Br1662     Br  0.73017712  0.50558244  0.90260400    -0.01900
Br1663     Br  0.53427955  0.98826727  0.85407744    -0.01900
Br1664     Br  0.60427129  0.05857180  0.83248856    -0.01900
loop_ 
_geom_bond_atom_site_label_1 
_geom_bond_atom_site_label_2 
_geom_bond_distance 
_geom_bond_site_symmetry_2 
_ccdc_geom_bond_type 
O1           C16   1.261       .  A
O1           Al9   1.920       .  S
C2           O12   1.261       .  A
C2            O3   1.257       .  A
C2          C381   1.473       .  S
O3           Al5   1.894   1_455  S
O4            C6   1.262       .  A
O4         Al837   1.912       .  S
Al5          O13   1.912   1_655  S
Al5         O836   1.912       .  S
Al5         O847   1.900       .  S
Al5          O14   1.789       .  S
C6           O19   1.260       .  A
C6          C391   1.485       .  S
O7          C849   1.264       .  A
O7           Al9   1.928       .  S
O8          C853   1.261   1_455  A
O8          Al18   1.916       .  S
Al9          O22   1.903       .  S
Al9          O19   1.897       .  S
Al9         O846   1.785       .  S
O10          C17   1.261   1_455  A
O10         Al18   1.902       .  S
O11          C20   1.258       .  A
O11         Al18   1.886       .  S
O12         Al18   1.920       .  S
O13          C20   1.262       .  A
O14         Al18   1.790   1_655  S
O14        Al841   1.785       .  S
O15          C16   1.258       .  A
O15        Al837   1.900       .  S
C16         C398   1.478       .  S
C17         O839   1.264       .  A
C17         C368   1.483       .  S
C20         C411   1.481       .  S
C21          O22   1.261       .  A
C21         O840   1.261       .  A
C21         C358   1.479       .  S
O23          C38   1.262       .  A
O23         Al31   1.895       .  S
C24          O34   1.263       .  A
C24          O25   1.265       .  A
C24         C401   1.491       .  S
O25         Al27   1.924       .  S
O26          C28   1.255       .  A
O26         Al27   1.888       .  S
Al27         O35   1.882       .  S
Al27         O37   1.918       .  S
Al27         O36   1.788       .  S
C28          O41   1.258       .  A
C28         C388   1.470       .  S
O29          C39   1.263       .  A
O29         Al31   1.911       .  S
O30          C43   1.261       .  A
O30         Al40   1.907       .  S
Al31         O44   1.929       .  S
Al31         O41   1.914       .  S
Al31         O36   1.785       .  S
O32          C39   1.263       .  A
O32         Al40   1.926       .  S
O33          C42   1.258       .  A
O33         Al40   1.906       .  S
O34         Al40   1.906       .  S
O35          C42   1.254       .  A
O36         Al40   1.785       .  S
O37          C38   1.265       .  A
C38         C378   1.478       .  S
C39         C351   1.505       .  S
C42         C408   1.465       .  S
C43          O44   1.263       .  A
C43         C338   1.481       .  S
O45          C60   1.263       .  A
O45         Al53   1.901       .  S
C46          O56   1.261       .  A
C46          O47   1.258       .  A
C46         C298   1.476       .  S
O47         Al49   1.903       .  S
O48          C50   1.257       .  A
O48         Al49   1.896       .  S
Al49         O57   1.897       .  S
Al49         O59   1.923       .  S
Al49         O58   1.780       .  S
C50          O63   1.260       .  A
C50         C308   1.499       .  S
O51          C61   1.260       .  A
O51         Al53   1.884       .  S
O52          C65   1.258       .  A
O52         Al62   1.908       .  S
Al53         O66   1.923       .  S
Al53         O63   1.928       .  S
Al53         O58   1.788       .  S
O54          C61   1.264       .  A
O54         Al62   1.916       .  S
O55          C64   1.262       .  A
O55         Al62   1.907       .  S
O56         Al62   1.909       .  S
O57          C64   1.260       .  A
O58         Al62   1.782       .  S
O59          C60   1.265       .  A
C60         C318   1.477       .  S
C61         C288   1.468       .  S
C64         C331   1.476       .  S
C65          O66   1.261       .  A
C65         C281   1.510       .  S
O67          C82   1.260       .  A
O67        Al907   1.909   1_455  S
C68          O78   1.264       .  A
C68          O69   1.261       .  A
C68         C321   1.477       .  S
O69        Al903   1.912       .  S
O70          C72   1.262       .  A
O70        Al903   1.900       .  S
Al71         O79   1.896       .  S
Al71         O81   1.902       .  S
Al71        O901   1.912   1_455  S
Al71        O902   1.900   1_455  S
Al71         O80   1.781       .  S
C72          O85   1.267       .  A
C72         C311   1.481       .  S
O73          C83   1.256       .  A
O73         Al75   1.900       .  S
O74          C87   1.263       .  A
O74         Al84   1.896   1_455  S
Al75         O85   1.923       .  S
Al75        O899   1.909       .  S
Al75        O920   1.935       .  S
Al75        O912   1.776       .  S
O76          C83   1.262       .  A
O76        Al916   1.927       .  S
O77          C86   1.265       .  A
O77         Al84   1.933   1_455  S
O78        Al916   1.909       .  S
O79          C86   1.258       .  A
O80         Al84   1.785   1_455  S
O80        Al907   1.776   1_455  S
O81          C82   1.256       .  A
C82         C301   1.474       .  S
C83         C348   1.508       .  S
Al84        O908   1.927       .  S
Al84        O910   1.909       .  S
C86         C328   1.499       .  S
C87          O88   1.268       .  A
C87         C341   1.488       .  S
O88        Al907   1.935   1_455  S
O89         C104   1.260       .  A
O89         Al97   1.901       .  S
C90         O100   1.262       .  A
C90          O91   1.261       .  A
C90         C238   1.487       .  S
O91         Al93   1.924       .  S
O92          C94   1.260       .  A
O92         Al93   1.894       .  S
Al93        O101   1.898       .  S
Al93        O103   1.929       .  S
Al93        O102   1.778       .  S
C94         O107   1.264       .  A
C94         C248   1.489       .  S
O95         C105   1.259       .  A
O95         Al97   1.883       .  S
O96         C109   1.261       .  A
O96        Al106   1.904       .  S
Al97        O110   1.925       .  S
Al97        O107   1.926       .  S
Al97        O102   1.784       .  S
O98         C105   1.262       .  A
O98        Al106   1.913       .  S
O99         C108   1.264       .  A
O99        Al106   1.916       .  S
O100       Al106   1.916       .  S
O101        C108   1.262       .  A
O102       Al106   1.781       .  S
O103        C104   1.263       .  A
C104        C258   1.478       .  S
C105        C291   1.462       .  S
C108        C271   1.484       .  S
C109        O110   1.261       .  A
C109        C278   1.499       .  S
O111        C126   1.258       .  A
O111       Al951   1.903       .  S
C112        O122   1.260       .  A
C112        O113   1.256       .  A
C112        C241   1.483       .  S
O113       Al947   1.909       .  S
O114        C116   1.259       .  A
O114       Al947   1.890       .  S
Al115       O123   1.886       .  S
Al115       O125   1.916       .  S
Al115       O945   1.909       .  S
Al115       O946   1.890       .  S
Al115       O956   1.793       .  S
C116        O129   1.264       .  A
C116        C268   1.484       .  S
O117        C127   1.259       .  A
O117       Al119   1.898       .  S
O118        C131   1.260       .  A
O118       Al128   1.901       .  S
Al119       O129   1.918       .  S
Al119       O943   1.903   1_455  S
Al119       O964   1.909   1_455  S
Al119       O124   1.797       .  S
O120        C127   1.259       .  A
O120       Al960   1.906   1_455  S
O121        C130   1.263       .  A
O121       Al128   1.913       .  S
O122       Al960   1.915   1_455  S
O123        C130   1.260       .  A
O124       Al947   1.793       .  S
O124       Al960   1.795   1_455  S
O125        C126   1.258       .  A
C126        C261   1.482       .  S
C127        C218   1.480       .  S
Al128       O952   1.906       .  S
Al128       O954   1.915       .  S
Al128       O956   1.795       .  S
C130        C251   1.475       .  S
C131        O132   1.260       .  A
C131        C228   1.478       .  S
O132       Al951   1.909       .  S
O133        C148   1.258       .  A
O133       Al141   1.894       .  S
C134        O144   1.261       .  A
C134        O135   1.261       .  A
C134        C198   1.481       .  S
O135       Al137   1.910       .  S
O136        C138   1.258       .  A
O136       Al969   1.892       .  S
Al137       O145   1.893       .  S
Al137       O968   1.892       .  S
Al137       O979   1.904       .  S
Al137       O146   1.800       .  S
C138        O151   1.262       .  A
C138        C211   1.478       .  S
O139        C981   1.260       .  A
O139       Al141   1.910       .  S
O140        C985   1.262       .  A
O140       Al150   1.907       .  S
Al141       O154   1.919       .  S
Al141       O151   1.921       .  S
Al141       O978   1.793       .  S
O142        C149   1.259       .  A
O142       Al150   1.912       .  S
O143        C152   1.259       .  A
O143       Al150   1.915       .  S
O144       Al150   1.896       .  S
O145        C152   1.257       .  A
O146       Al150   1.793       .  S
O146       Al973   1.793       .  S
O147        C148   1.258       .  A
O147       Al969   1.904       .  S
C148        C181   1.481       .  S
C149        O971   1.260       .  A
C149        C361   1.487       .  S
C152        C188   1.473       .  S
C153        O154   1.263   1_655  A
C153        O972   1.262       .  A
C153        C371   1.483       .  S
O155        C170   1.264       .  A
O155       Al163   1.926       .  S
C156        O166   1.262       .  A
C156        O157   1.258       .  A
C156        C178   1.468       .  S
O157       Al159   1.889       .  S
O158        C160   1.261       .  A
O158       Al159   1.919       .  S
Al159       O167   1.914       .  S
Al159       O169   1.890       .  S
Al159       O168   1.790       .  S
C160        O173   1.259       .  A
C160        C208   1.493       .  S
O161        C171   1.261       .  A
O161       Al163   1.914       .  S
O162        C175   1.262       .  A
O162       Al172   1.919       .  S
Al163       O176   1.902       .  S
Al163       O173   1.902       .  S
Al163       O168   1.790       .  S
O164        C171   1.259       .  A
O164       Al172   1.892       .  S
O165        C174   1.260       .  A
O165       Al172   1.898       .  S
O166       Al172   1.916       .  S
O167        C174   1.261       .  A
O168       Al172   1.790       .  S
O169        C170   1.258       .  A
C170        C201   1.473       .  S
C171        C221   1.475       .  S
C174        C191   1.483       .  S
C175        O176   1.260       .  A
C175        C231   1.479       .  S
C177        C178   1.404       .  A
C177        C182   1.409       .  A
C177       Br184   1.931       .  S
C178        C179   1.406       .  A
C179        C180   1.405       .  A
C179       Br186   1.930       .  S
C180        C181   1.414       .  A
C180       Br185   1.933       .  S
C181        C182   1.416       .  A
C182       Br183   1.929       .  S
C187        C188   1.409       .  A
C187        C192   1.409       .  A
C187       Br194   1.930       .  S
C188        C189   1.404       .  A
C189        C190   1.408       .  A
C189       Br196   1.929       .  S
C190        C191   1.415       .  A
C190       Br195   1.928       .  S
C191        C192   1.415       .  A
C192       Br193   1.933       .  S
C197        C198   1.416       .  A
C197        C618   1.411   1_545  A
C197       Br620   1.932       .  S
C198        C199   1.413       .  A
C199        C200   1.404       .  A
C199       Br206   1.933       .  S
C200        C617   1.406   1_545  A
C200       Br205   1.929       .  S
C201        C202   1.407       .  A
C201        C616   1.406       .  A
C202        C613   1.411       .  A
C202       Br203   1.926       .  S
Br204       C613   1.932       .  S
C207        C212   1.410       .  A
C207        C624   1.417   1_545  A
C207       Br214   1.933       .  S
C208        C209   1.419       .  A
C208        C623   1.417       .  A
C209        C210   1.412       .  A
C209       Br216   1.930       .  S
C210        C627   1.406       .  A
C210       Br215   1.931       .  S
C211        C212   1.408       .  A
C211        C626   1.406       .  A
C212       Br213   1.932       .  S
C217        C218   1.412       .  A
C217        C222   1.409       .  A
C217       Br224   1.930       .  S
C218        C219   1.412       .  A
C219        C220   1.407       .  A
C219       Br226   1.925       .  S
C220        C221   1.408       .  A
C220       Br225   1.933       .  S
C221        C222   1.409       .  A
C222       Br223   1.929       .  S
C227        C228   1.410       .  A
C227        C232   1.413       .  A
C227       Br234   1.930       .  S
C228        C229   1.408       .  A
C229        C230   1.407       .  A
C229       Br236   1.929       .  S
C230        C231   1.408       .  A
C230       Br235   1.927       .  S
C231        C232   1.412       .  A
C232       Br233   1.930       .  S
C237        C238   1.413       .  A
C237        C242   1.412       .  A
C237       Br244   1.926       .  S
C238        C239   1.412       .  A
C239        C240   1.413       .  A
C239       Br246   1.929       .  S
C240        C241   1.411       .  A
C240       Br245   1.929       .  S
C241        C242   1.409       .  A
C242       Br243   1.930       .  S
C247        C248   1.418       .  A
C247        C252   1.405       .  A
C247       Br254   1.933       .  S
C248        C249   1.420       .  A
C249        C250   1.407       .  A
C249       Br256   1.935       .  S
C250        C251   1.408       .  A
C250       Br255   1.933       .  S
C251        C252   1.409       .  A
C252       Br253   1.935       .  S
C257        C262   1.411       .  A
C257        C674   1.408       .  A
C257       Br264   1.931       .  S
C258        C259   1.411       .  A
C258        C673   1.408   1_545  A
C259        C260   1.411       .  A
C259       Br266   1.931       .  S
C260        C677   1.411   1_545  A
C260       Br265   1.931       .  S
C261        C262   1.412       .  A
C261        C676   1.411       .  A
C262       Br263   1.927       .  S
C267        C268   1.414       .  A
C267        C688   1.408       .  A
C267       Br274   1.932       .  S
C268        C269   1.414       .  A
C269        C686   1.406       .  A
C269       Br276   1.936       .  S
C270        C271   1.413   1_565  A
C270        C685   1.406       .  A
C270       Br275   1.930       .  S
C271        C272   1.413       .  A
C272        C683   1.408   1_545  A
C272       Br273   1.933       .  S
C277        C278   1.413       .  A
C277        C698   1.410   1_545  A
C277       Br284   1.935       .  S
C278        C279   1.416       .  A
C279        C696   1.415   1_545  A
C279       Br286   1.936       .  S
C280        C281   1.426       .  A
C280        C695   1.415       .  A
C280       Br285   1.939       .  S
C281        C282   1.422       .  A
C282        C693   1.410       .  A
C282       Br283   1.936       .  S
C287        C288   1.409       .  A
C287        C292   1.404       .  A
C287       Br294   1.928       .  S
C288        C289   1.411       .  A
C289        C290   1.404       .  A
C289       Br296   1.932       .  S
C290        C291   1.404       .  A
C290       Br295   1.926       .  S
C291        C292   1.406       .  A
C292       Br293   1.930       .  S
C297        C298   1.409       .  A
C297        C302   1.407       .  A
C297       Br304   1.929       .  S
C298        C299   1.411       .  A
C299        C300   1.410       .  A
C299       Br306   1.926       .  S
C300        C301   1.409       .  A
C300       Br305   1.928       .  S
C301        C302   1.408       .  A
C302       Br303   1.929       .  S
C307        C308   1.424       .  A
C307        C312   1.413       .  A
C307       Br314   1.935       .  S
C308        C309   1.422       .  A
C309        C310   1.406       .  A
C309       Br316   1.936       .  S
C310        C311   1.404       .  A
C310       Br315   1.928       .  S
C311        C312   1.408       .  A
C312       Br313   1.933       .  S
C317        C322   1.409   1_565  A
C317        C734   1.411       .  A
C317       Br324   1.928   1_565  S
C318        C319   1.410       .  A
C318        C733   1.411       .  A
C319        C320   1.408       .  A
C319       Br326   1.932       .  S
C320        C737   1.413       .  A
C320       Br325   1.933       .  S
C321        C322   1.409       .  A
C321        C736   1.413   1_545  A
C322       Br323   1.930       .  S
C327        C328   1.424       .  A
C327        C748   1.406   1_545  A
C327       Br334   1.937       .  S
C328        C745   1.424   1_545  A
C329        C330   1.411       .  A
C329        C744   1.424       .  A
C329       Br336   1.935       .  S
C330        C331   1.406       .  A
C330       Br335   1.934       .  S
C331        C332   1.403       .  A
C332        C743   1.406       .  A
C332       Br333   1.929       .  S
C337        C338   1.411       .  A
C337        C342   1.414       .  A
C337       Br344   1.930       .  S
C338        C339   1.407       .  A
C339        C340   1.409       .  A
C339       Br346   1.930       .  S
C340        C341   1.413       .  A
C340       Br345   1.929       .  S
C341        C342   1.415       .  A
C342       Br343   1.933       .  S
C347        C348   1.424       .  A
C347        C352   1.415       .  A
C347       Br354   1.938       .  S
C348        C349   1.420       .  A
C349        C350   1.412       .  A
C349       Br356   1.940       .  S
C350        C351   1.420       .  A
C350       Br355   1.937       .  S
C351        C352   1.418       .  A
C352       Br353   1.938       .  S
C357        C362   1.413       .  A
C357       C1606   1.412   1_445  A
C357       Br364   1.930       .  S
C358        C359   1.407   1_556  A
C358       C1605   1.412       .  A
C359        C360   1.408       .  A
C359       Br366   1.932       .  S
C360        C777   1.414       .  A
C360       Br365   1.926       .  S
C361        C776   1.414       .  A
C361       C1194   1.414   1_554  A
C362       C1193   1.414   1_556  A
C362       Br363   1.931       .  S
C367        C368   1.411   1_454  A
C367        C372   1.411       .  A
C367       Br374   1.930       .  S
C368       C1201   1.411       .  A
C369        C370   1.411       .  A
C369       C1200   1.411       .  A
C369       Br376   1.927       .  S
C370       C1203   1.410   1_556  A
C370       Br375   1.930       .  S
C371        C372   1.412   1_655  A
C371       C1202   1.410   1_554  A
C372       Br373   1.929       .  S
C377        C378   1.411       .  A
C377        C382   1.404       .  A
C377       Br384   1.934       .  S
C378        C379   1.414       .  A
C379        C380   1.411       .  A
C379       Br386   1.929       .  S
C380        C381   1.407       .  A
C380       Br385   1.929       .  S
C381        C382   1.408       .  A
C382       Br383   1.928       .  S
C387        C388   1.403       .  A
C387        C392   1.407       .  A
C387       Br394   1.931       .  S
C388        C389   1.407       .  A
C389        C390   1.408       .  A
C389       Br396   1.931       .  S
C390        C391   1.416       .  A
C390       Br395   1.934       .  S
C391        C392   1.417       .  A
C392       Br393   1.929       .  S
C397        C398   1.408       .  A
C397        C402   1.410       .  A
C397       Br404   1.931       .  S
C398        C815   1.406       .  A
C399        C400   1.412       .  A
C399        C814   1.406   1_545  A
C399       Br406   1.930       .  S
C400        C401   1.417       .  A
C400       Br405   1.929       .  S
C401        C818   1.417   1_545  A
C402        C817   1.417       .  A
C402       Br403   1.932       .  S
C407        C408   1.405   1_565  A
C407        C828   1.406       .  A
C407       Br414   1.933   1_565  S
C408        C825   1.403       .  A
C409        C410   1.404       .  A
C409        C824   1.403       .  A
C409       Br416   1.928       .  S
C410        C411   1.416       .  A
C410       Br415   1.931       .  S
C411        C412   1.418       .  A
C412        C823   1.406       .  A
C412       Br413   1.934       .  S
O417        C432   1.261       .  A
O417       Al425   1.920       .  S
C418        O428   1.261       .  A
C418        O419   1.257       .  A
C418        C797   1.473       .  S
O419       Al421   1.894   1_455  S
O420        C422   1.262       .  A
O420      Al1253   1.912       .  S
Al421      O1252   1.912       .  S
Al421       O429   1.912   1_655  S
Al421      O1263   1.900       .  S
Al421       O430   1.789       .  S
C422        O435   1.260       .  A
C422        C807   1.485       .  S
O423       C1265   1.264       .  A
O423       Al425   1.928       .  S
O424       C1269   1.261   1_455  A
O424       Al434   1.916       .  S
Al425       O438   1.904       .  S
Al425       O435   1.897       .  S
Al425      O1262   1.785       .  S
O426        C433   1.261   1_455  A
O426       Al434   1.902       .  S
O427        C436   1.258       .  A
O427       Al434   1.886       .  S
O428       Al434   1.920       .  S
O429        C436   1.262       .  A
O430      Al1257   1.785       .  S
O430       Al434   1.790   1_655  S
O431        C432   1.258       .  A
O431      Al1253   1.900       .  S
C432        C814   1.478       .  S
C433       O1255   1.264       .  A
C433        C784   1.483       .  S
C436        C827   1.481       .  S
C437       O1256   1.261       .  A
C437        O438   1.261       .  A
C437        C774   1.479       .  S
O439        C454   1.262       .  A
O439       Al447   1.895       .  S
C440        O450   1.263       .  A
C440        O441   1.265       .  A
C440        C817   1.491       .  S
O441       Al443   1.924       .  S
O442        C444   1.255       .  A
O442       Al443   1.888       .  S
Al443       O451   1.882       .  S
Al443       O453   1.918       .  S
Al443       O452   1.788       .  S
C444        O457   1.258       .  A
C444        C804   1.470       .  S
O445        C455   1.263       .  A
O445       Al447   1.911       .  S
O446        C459   1.261       .  A
O446       Al456   1.907       .  S
Al447       O460   1.929       .  S
Al447       O457   1.914       .  S
Al447       O452   1.785       .  S
O448        C455   1.263       .  A
O448       Al456   1.926       .  S
O449        C458   1.258       .  A
O449       Al456   1.906       .  S
O450       Al456   1.906       .  S
O451        C458   1.254       .  A
O452       Al456   1.785       .  S
O453        C454   1.265       .  A
C454        C794   1.478       .  S
C455        C767   1.505       .  S
C458        C824   1.465       .  S
C459        O460   1.263       .  A
C459        C754   1.481       .  S
O461        C476   1.263       .  A
O461       Al469   1.901       .  S
C462        O472   1.261       .  A
C462        O463   1.258       .  A
C462        C714   1.476       .  S
O463       Al465   1.903       .  S
O464        C466   1.257       .  A
O464       Al465   1.896       .  S
Al465       O473   1.897       .  S
Al465       O475   1.923       .  S
Al465       O474   1.780       .  S
C466        O479   1.260       .  A
C466        C724   1.499       .  S
O467        C477   1.260       .  A
O467       Al469   1.884       .  S
O468        C481   1.258       .  A
O468       Al478   1.908       .  S
Al469       O482   1.923       .  S
Al469       O479   1.928       .  S
Al469       O474   1.788       .  S
O470        C477   1.264       .  A
O470       Al478   1.916       .  S
O471        C480   1.262       .  A
O471       Al478   1.907       .  S
O472       Al478   1.909       .  S
O473        C480   1.260       .  A
O474       Al478   1.782       .  S
O475        C476   1.265       .  A
C476        C734   1.477       .  S
C477        C704   1.468       .  S
C480        C747   1.476       .  S
C481        O482   1.261       .  A
C481        C697   1.510       .  S
O483        C498   1.260       .  A
O483      Al1323   1.909   1_455  S
C484        O494   1.264       .  A
C484        O485   1.261       .  A
C484        C737   1.477       .  S
O485      Al1319   1.912       .  S
O486        C488   1.262       .  A
O486      Al1319   1.900       .  S
Al487      O1317   1.912   1_455  S
Al487      O1318   1.900   1_455  S
Al487       O495   1.896       .  S
Al487       O497   1.902       .  S
Al487       O496   1.781       .  S
C488        O501   1.267       .  A
C488        C727   1.481       .  S
O489        C499   1.256       .  A
O489       Al491   1.900       .  S
O490        C503   1.263       .  A
O490       Al500   1.896   1_455  S
Al491      O1315   1.909       .  S
Al491      O1336   1.934       .  S
Al491       O501   1.923       .  S
Al491      O1328   1.776       .  S
O492        C499   1.262       .  A
O492      Al1332   1.927       .  S
O493        C502   1.265       .  A
O493       Al500   1.933   1_455  S
O494      Al1332   1.909       .  S
O495        C502   1.258       .  A
O496      Al1323   1.776   1_455  S
O496       Al500   1.785   1_455  S
O497        C498   1.256       .  A
C498        C717   1.474       .  S
C499        C764   1.508       .  S
Al500      O1324   1.927       .  S
Al500      O1326   1.909       .  S
C502        C744   1.499       .  S
C503        O504   1.268       .  A
C503        C757   1.488       .  S
O504      Al1323   1.935   1_455  S
O505        C520   1.260       .  A
O505       Al513   1.901       .  S
C506        O516   1.262       .  A
C506        O507   1.261       .  A
C506        C654   1.487       .  S
O507       Al509   1.924       .  S
O508        C510   1.260       .  A
O508       Al509   1.894       .  S
Al509       O517   1.898       .  S
Al509       O519   1.929       .  S
Al509       O518   1.778       .  S
C510        O523   1.264       .  A
C510        C664   1.489       .  S
O511        C521   1.259       .  A
O511       Al513   1.883       .  S
O512        C525   1.261       .  A
O512       Al522   1.904       .  S
Al513       O526   1.925       .  S
Al513       O523   1.926       .  S
Al513       O518   1.784       .  S
O514        C521   1.262       .  A
O514       Al522   1.913       .  S
O515        C524   1.264       .  A
O515       Al522   1.916       .  S
O516       Al522   1.916       .  S
O517        C524   1.262       .  A
O518       Al522   1.781       .  S
O519        C520   1.263       .  A
C520        C674   1.478       .  S
C521        C707   1.462       .  S
C524        C687   1.484       .  S
C525        O526   1.261       .  A
C525        C694   1.499       .  S
O527        C542   1.258       .  A
O527      Al1367   1.903       .  S
C528        O538   1.260       .  A
C528        O529   1.256       .  A
C528        C657   1.483       .  S
O529      Al1363   1.909       .  S
O530        C532   1.259       .  A
O530      Al1363   1.890       .  S
Al531      O1361   1.909       .  S
Al531      O1362   1.890       .  S
Al531       O539   1.886       .  S
Al531       O541   1.916       .  S
Al531      O1372   1.793       .  S
C532        O545   1.264       .  A
C532        C684   1.484       .  S
O533        C543   1.259       .  A
O533       Al535   1.898       .  S
O534        C547   1.260       .  A
O534       Al544   1.901       .  S
Al535      O1359   1.903   1_455  S
Al535      O1380   1.909   1_455  S
Al535       O545   1.918       .  S
Al535       O540   1.797       .  S
O536        C543   1.259       .  A
O536      Al1376   1.906   1_455  S
O537        C546   1.263       .  A
O537       Al544   1.913       .  S
O538      Al1376   1.915   1_455  S
O539        C546   1.260       .  A
O540      Al1363   1.793       .  S
O540      Al1376   1.795   1_455  S
O541        C542   1.258       .  A
C542        C677   1.482       .  S
C543        C634   1.480       .  S
Al544      O1368   1.906       .  S
Al544      O1370   1.915       .  S
Al544      O1372   1.795       .  S
C546        C667   1.475       .  S
C547        O548   1.260       .  A
C547        C644   1.478       .  S
O548      Al1367   1.909       .  S
O549        C564   1.258       .  A
O549       Al557   1.894       .  S
C550        O560   1.261       .  A
C550        O551   1.261       .  A
C550        C614   1.481       .  S
O551       Al553   1.910       .  S
O552        C554   1.258       .  A
O552      Al1385   1.892       .  S
Al553      O1384   1.892       .  S
Al553       O561   1.893       .  S
Al553      O1395   1.904       .  S
Al553       O562   1.800       .  S
C554        O567   1.262       .  A
C554        C627   1.478       .  S
O555       C1397   1.260       .  A
O555       Al557   1.910       .  S
O556       C1401   1.262       .  A
O556       Al566   1.907       .  S
Al557       O570   1.919       .  S
Al557       O567   1.921       .  S
Al557      O1394   1.793       .  S
O558        C565   1.259       .  A
O558       Al566   1.912       .  S
O559        C568   1.259       .  A
O559       Al566   1.915       .  S
O560       Al566   1.896       .  S
O561        C568   1.257       .  A
O562      Al1389   1.793       .  S
O562       Al566   1.793       .  S
O563        C564   1.258       .  A
O563      Al1385   1.904       .  S
C564        C597   1.481       .  S
C565       O1387   1.260       .  A
C565        C777   1.487       .  S
C568        C604   1.473       .  S
C569       O1388   1.262       .  A
C569        O570   1.263   1_655  A
C569        C787   1.483       .  S
O571        C586   1.264       .  A
O571       Al579   1.926       .  S
C572        O582   1.262       .  A
C572        O573   1.258       .  A
C572        C594   1.468       .  S
O573       Al575   1.889       .  S
O574        C576   1.261       .  A
O574       Al575   1.919       .  S
Al575       O583   1.914       .  S
Al575       O585   1.890       .  S
Al575       O584   1.790       .  S
C576        O589   1.259       .  A
C576        C624   1.493       .  S
O577        C587   1.261       .  A
O577       Al579   1.914       .  S
O578        C591   1.262       .  A
O578       Al588   1.919       .  S
Al579       O592   1.902       .  S
Al579       O589   1.902       .  S
Al579       O584   1.790       .  S
O580        C587   1.259       .  A
O580       Al588   1.892       .  S
O581        C590   1.260       .  A
O581       Al588   1.898       .  S
O582       Al588   1.916       .  S
O583        C590   1.261       .  A
O584       Al588   1.790       .  S
O585        C586   1.258       .  A
C586        C617   1.473       .  S
C587        C637   1.475       .  S
C590        C607   1.483       .  S
C591        O592   1.260       .  A
C591        C647   1.479       .  S
C593        C594   1.404       .  A
C593        C598   1.409       .  A
C593       Br600   1.931       .  S
C594        C595   1.406       .  A
C595        C596   1.405       .  A
C595       Br602   1.930       .  S
C596        C597   1.414       .  A
C596       Br601   1.933       .  S
C597        C598   1.416       .  A
C598       Br599   1.929       .  S
C603        C604   1.409       .  A
C603        C608   1.409       .  A
C603       Br610   1.930       .  S
C604        C605   1.404       .  A
C605        C606   1.408       .  A
C605       Br612   1.929       .  S
C606        C607   1.415       .  A
C606       Br611   1.928       .  S
C607        C608   1.415       .  A
C608       Br609   1.933       .  S
C613        C614   1.416       .  A
C614        C615   1.413       .  A
C615        C616   1.404       .  A
C615       Br622   1.933       .  S
C616       Br621   1.929       .  S
C617        C618   1.407       .  A
C618       Br619   1.926       .  S
C623        C628   1.410       .  A
C623       Br630   1.933       .  S
C624        C625   1.419       .  A
C625        C626   1.412   1_565  A
C625       Br632   1.930       .  S
C626       Br631   1.931   1_545  S
C627        C628   1.408       .  A
C628       Br629   1.932       .  S
C633        C634   1.412       .  A
C633        C638   1.409       .  A
C633       Br640   1.930       .  S
C634        C635   1.412       .  A
C635        C636   1.407       .  A
C635       Br642   1.925       .  S
C636        C637   1.408       .  A
C636       Br641   1.933       .  S
C637        C638   1.409       .  A
C638       Br639   1.929       .  S
C643        C644   1.410       .  A
C643        C648   1.413       .  A
C643       Br650   1.930       .  S
C644        C645   1.408       .  A
C645        C646   1.407       .  A
C645       Br652   1.929       .  S
C646        C647   1.408       .  A
C646       Br651   1.927       .  S
C647        C648   1.412       .  A
C648       Br649   1.930       .  S
C653        C654   1.413       .  A
C653        C658   1.412       .  A
C653       Br660   1.926       .  S
C654        C655   1.412       .  A
C655        C656   1.413       .  A
C655       Br662   1.929       .  S
C656        C657   1.411       .  A
C656       Br661   1.929       .  S
C657        C658   1.409       .  A
C658       Br659   1.930       .  S
C663        C664   1.418       .  A
C663        C668   1.405       .  A
C663       Br670   1.933       .  S
C664        C665   1.420       .  A
C665        C666   1.407       .  A
C665       Br672   1.935       .  S
C666        C667   1.408       .  A
C666       Br671   1.933       .  S
C667        C668   1.409       .  A
C668       Br669   1.935       .  S
C673        C678   1.411       .  A
C673       Br680   1.931       .  S
C674        C675   1.411       .  A
C675        C676   1.411       .  A
C675       Br682   1.931       .  S
C676       Br681   1.931       .  S
C677        C678   1.412       .  A
C678       Br679   1.927       .  S
C683        C684   1.414       .  A
C683       Br690   1.932       .  S
C684        C685   1.414       .  A
C685       Br692   1.936       .  S
C686        C687   1.413       .  A
C686       Br691   1.930       .  S
C687        C688   1.413       .  A
C688       Br689   1.933       .  S
C693        C694   1.413       .  A
C693       Br700   1.935       .  S
C694        C695   1.416       .  A
C695       Br702   1.936       .  S
C696        C697   1.426       .  A
C696       Br701   1.939       .  S
C697        C698   1.422       .  A
C698       Br699   1.936       .  S
C703        C704   1.409       .  A
C703        C708   1.404       .  A
C703       Br710   1.928       .  S
C704        C705   1.411       .  A
C705        C706   1.404       .  A
C705       Br712   1.932       .  S
C706        C707   1.404       .  A
C706       Br711   1.926       .  S
C707        C708   1.406       .  A
C708       Br709   1.930       .  S
C713        C714   1.409       .  A
C713        C718   1.407       .  A
C713       Br720   1.929       .  S
C714        C715   1.411       .  A
C715        C716   1.410       .  A
C715       Br722   1.926       .  S
C716        C717   1.409       .  A
C716       Br721   1.928       .  S
C717        C718   1.408       .  A
C718       Br719   1.929       .  S
C723        C724   1.424       .  A
C723        C728   1.413       .  A
C723       Br730   1.935       .  S
C724        C725   1.422       .  A
C725        C726   1.406       .  A
C725       Br732   1.936       .  S
C726        C727   1.404       .  A
C726       Br731   1.928       .  S
C727        C728   1.408       .  A
C728       Br729   1.933       .  S
C733        C738   1.409       .  A
C733       Br740   1.928       .  S
C734        C735   1.410       .  A
C735        C736   1.408       .  A
C735       Br742   1.932       .  S
C736       Br741   1.933       .  S
C737        C738   1.409       .  A
C738       Br739   1.930       .  S
C743        C744   1.424       .  A
C743       Br750   1.937       .  S
C745        C746   1.411       .  A
C745       Br752   1.935       .  S
C746        C747   1.406       .  A
C746       Br751   1.934       .  S
C747        C748   1.403       .  A
C748       Br749   1.929   1_565  S
C753        C754   1.411       .  A
C753        C758   1.414       .  A
C753       Br760   1.930       .  S
C754        C755   1.407       .  A
C755        C756   1.409       .  A
C755       Br762   1.930       .  S
C756        C757   1.413       .  A
C756       Br761   1.929       .  S
C757        C758   1.415       .  A
C758       Br759   1.933       .  S
C763        C764   1.424       .  A
C763        C768   1.415       .  A
C763       Br770   1.938       .  S
C764        C765   1.420       .  A
C765        C766   1.412       .  A
C765       Br772   1.940       .  S
C766        C767   1.420       .  A
C766       Br771   1.937       .  S
C767        C768   1.418       .  A
C768       Br769   1.938       .  S
C773       C1190   1.412   1_455  A
C773        C778   1.413       .  A
C773       Br780   1.930       .  S
C774       C1189   1.412   1_565  A
C774        C775   1.407   1_556  A
C775        C776   1.408   1_565  A
C775       Br782   1.932       .  S
C776       Br781   1.926   1_545  S
C777       C1610   1.414   1_554  A
C778       C1609   1.414   1_556  A
C778       Br779   1.931       .  S
C783        C784   1.411   1_454  A
C783        C788   1.411       .  A
C783       Br790   1.930       .  S
C784       C1617   1.411       .  A
C785       C1616   1.411       .  A
C785        C786   1.411       .  A
C785       Br792   1.927       .  S
C786       C1619   1.410   1_556  A
C786       Br791   1.930       .  S
C787       C1618   1.410   1_554  A
C787        C788   1.412   1_655  A
C788       Br789   1.929       .  S
C793        C794   1.411       .  A
C793        C798   1.404       .  A
C793       Br800   1.934       .  S
C794        C795   1.414       .  A
C795        C796   1.411       .  A
C795       Br802   1.929       .  S
C796        C797   1.407       .  A
C796       Br801   1.929       .  S
C797        C798   1.408       .  A
C798       Br799   1.928       .  S
C803        C804   1.403       .  A
C803        C808   1.407       .  A
C803       Br810   1.931       .  S
C804        C805   1.407       .  A
C805        C806   1.408       .  A
C805       Br812   1.931       .  S
C806        C807   1.416       .  A
C806       Br811   1.934       .  S
C807        C808   1.417       .  A
C808       Br809   1.929       .  S
C813        C814   1.408       .  A
C813        C818   1.410       .  A
C813       Br820   1.931       .  S
C815        C816   1.412       .  A
C815       Br822   1.930       .  S
C816        C817   1.417       .  A
C816       Br821   1.929       .  S
C818       Br819   1.932       .  S
C823        C824   1.405       .  A
C823       Br830   1.933       .  S
C825        C826   1.404   1_545  A
C825       Br832   1.928       .  S
C826        C827   1.416       .  A
C826       Br831   1.931       .  S
C827        C828   1.418       .  A
C828       Br829   1.934       .  S
O833        C848   1.261       .  A
O833       Al841   1.920       .  S
C834        O844   1.261       .  A
C834        O835   1.257       .  A
C834       C1213   1.473       .  S
O835       Al837   1.894       .  S
O836        C838   1.262       .  A
Al837       O845   1.912       .  S
Al837       O846   1.789       .  S
C838        O851   1.260       .  A
C838       C1223   1.485       .  S
O839       Al841   1.928       .  S
O840       Al850   1.916       .  S
Al841       O854   1.903       .  S
Al841       O851   1.897       .  S
O842        C849   1.261       .  A
O842       Al850   1.902       .  S
O843        C852   1.258       .  A
O843       Al850   1.886       .  S
O844       Al850   1.920       .  S
O845        C852   1.262       .  A
O846       Al850   1.790       .  S
O847        C848   1.258       .  A
C848       C1230   1.478       .  S
C849       C1200   1.483       .  S
C852       C1243   1.481       .  S
C853        O854   1.261       .  A
C853       C1190   1.479       .  S
O855        C870   1.262       .  A
O855       Al863   1.895       .  S
C856        O866   1.263       .  A
C856        O857   1.265       .  A
C856       C1233   1.491       .  S
O857       Al859   1.924       .  S
O858        C860   1.255       .  A
O858       Al859   1.888       .  S
Al859       O867   1.882       .  S
Al859       O869   1.918       .  S
Al859       O868   1.788       .  S
C860        O873   1.258       .  A
C860       C1220   1.470       .  S
O861        C871   1.263       .  A
O861       Al863   1.911       .  S
O862        C875   1.261       .  A
O862       Al872   1.907       .  S
Al863       O876   1.929       .  S
Al863       O873   1.914       .  S
Al863       O868   1.785       .  S
O864        C871   1.263       .  A
O864       Al872   1.926       .  S
O865        C874   1.258       .  A
O865       Al872   1.906       .  S
O866       Al872   1.906       .  S
O867        C874   1.254       .  A
O868       Al872   1.785       .  S
O869        C870   1.265       .  A
C870       C1210   1.478       .  S
C871       C1183   1.505       .  S
C874       C1240   1.465       .  S
C875        O876   1.263       .  A
C875       C1170   1.481       .  S
O877        C892   1.263       .  A
O877       Al885   1.901       .  S
C878        O888   1.261       .  A
C878        O879   1.258       .  A
C878       C1130   1.476       .  S
O879       Al881   1.903       .  S
O880        C882   1.257       .  A
O880       Al881   1.896       .  S
Al881       O889   1.897       .  S
Al881       O891   1.923       .  S
Al881       O890   1.780       .  S
C882        O895   1.260       .  A
C882       C1140   1.499       .  S
O883        C893   1.260       .  A
O883       Al885   1.884       .  S
O884        C897   1.258       .  A
O884       Al894   1.908       .  S
Al885       O898   1.923       .  S
Al885       O895   1.928       .  S
Al885       O890   1.788       .  S
O886        C893   1.264       .  A
O886       Al894   1.916       .  S
O887        C896   1.262       .  A
O887       Al894   1.907       .  S
O888       Al894   1.909       .  S
O889        C896   1.260       .  A
O890       Al894   1.782       .  S
O891        C892   1.265       .  A
C892       C1150   1.477       .  S
C893       C1120   1.468       .  S
C896       C1163   1.476       .  S
C897        O898   1.261       .  A
C897       C1113   1.510       .  S
O899        C914   1.260       .  A
C900        O910   1.264       .  A
C900        O901   1.261       .  A
C900       C1153   1.477       .  S
O902        C904   1.262       .  A
Al903       O911   1.896       .  S
Al903       O913   1.902       .  S
Al903       O912   1.781       .  S
C904        O917   1.267       .  A
C904       C1143   1.481       .  S
O905        C915   1.256       .  A
O905       Al907   1.900       .  S
O906        C919   1.263       .  A
O906       Al916   1.896       .  S
Al907       O917   1.923       .  S
O908        C915   1.262       .  A
O909        C918   1.265       .  A
O909       Al916   1.933       .  S
O911        C918   1.258       .  A
O912       Al916   1.785       .  S
O913        C914   1.256       .  A
C914       C1133   1.474       .  S
C915       C1180   1.508       .  S
C918       C1160   1.499       .  S
C919        O920   1.268       .  A
C919       C1173   1.488       .  S
O921        C936   1.260       .  A
O921       Al929   1.901       .  S
C922        O932   1.262       .  A
C922        O923   1.261       .  A
C922       C1070   1.487       .  S
O923       Al925   1.924       .  S
O924        C926   1.260       .  A
O924       Al925   1.894       .  S
Al925       O933   1.898       .  S
Al925       O935   1.929       .  S
Al925       O934   1.778       .  S
C926        O939   1.264       .  A
C926       C1080   1.489       .  S
O927        C937   1.259       .  A
O927       Al929   1.883       .  S
O928        C941   1.261       .  A
O928       Al938   1.904       .  S
Al929       O942   1.925       .  S
Al929       O939   1.926       .  S
Al929       O934   1.784       .  S
O930        C937   1.262       .  A
O930       Al938   1.913       .  S
O931        C940   1.264       .  A
O931       Al938   1.916       .  S
O932       Al938   1.916       .  S
O933        C940   1.262       .  A
O934       Al938   1.781       .  S
O935        C936   1.263       .  A
C936       C1090   1.478       .  S
C937       C1123   1.462       .  S
C940       C1103   1.484       .  S
C941        O942   1.261       .  A
C941       C1110   1.499       .  S
O943        C958   1.258       .  A
C944        O954   1.260       .  A
C944        O945   1.256       .  A
C944       C1073   1.483       .  S
O946        C948   1.259       .  A
Al947       O955   1.886   1_455  S
Al947       O957   1.916   1_455  S
C948        O961   1.264       .  A
C948       C1100   1.484       .  S
O949        C959   1.259       .  A
O949       Al951   1.898       .  S
O950        C963   1.260       .  A
O950       Al960   1.901       .  S
Al951       O961   1.918       .  S
Al951       O956   1.797       .  S
O952        C959   1.259       .  A
O953        C962   1.263       .  A
O953       Al960   1.913       .  S
O955        C962   1.260       .  A
O957        C958   1.258       .  A
C958       C1093   1.482       .  S
C959       C1050   1.480       .  S
C962       C1083   1.475       .  S
C963        O964   1.260       .  A
C963       C1060   1.478       .  S
O965        C980   1.258       .  A
O965       Al973   1.894       .  S
C966        O976   1.261       .  A
C966        O967   1.261       .  A
C966       C1030   1.481       .  S
O967       Al969   1.910   1_655  S
O968        C970   1.258       .  A
Al969       O977   1.893   1_455  S
Al969       O978   1.800       .  S
C970        O983   1.262       .  A
C970       C1043   1.478       .  S
O971       Al973   1.910       .  S
O972       Al982   1.907       .  S
Al973       O986   1.919       .  S
Al973       O983   1.921       .  S
O974        C981   1.259   1_655  A
O974       Al982   1.912       .  S
O975        C984   1.259       .  A
O975       Al982   1.915       .  S
O976       Al982   1.896       .  S
O977        C984   1.257       .  A
O978       Al982   1.793   1_455  S
O979        C980   1.258       .  A
C980       C1013   1.481       .  S
C981       C1193   1.487       .  S
C984       C1020   1.473       .  S
C985        O986   1.263       .  A
C985       C1203   1.483       .  S
O987       C1002   1.264       .  A
O987       Al995   1.926       .  S
C988        O998   1.262       .  A
C988        O989   1.258       .  A
C988       C1010   1.467       .  S
O989       Al991   1.889       .  S
O990        C992   1.261       .  A
O990       Al991   1.919       .  S
Al991       O999   1.914       .  S
Al991      O1001   1.890       .  S
Al991      O1000   1.790       .  S
C992       O1005   1.259       .  A
C992       C1040   1.493       .  S
O993       C1003   1.261       .  A
O993       Al995   1.914       .  S
O994       C1007   1.262       .  A
O994      Al1004   1.919       .  S
Al995      O1008   1.902       .  S
Al995      O1005   1.902       .  S
Al995      O1000   1.790       .  S
O996       C1003   1.259       .  A
O996      Al1004   1.892       .  S
O997       C1006   1.260       .  A
O997      Al1004   1.898       .  S
O998      Al1004   1.916       .  S
O999       C1006   1.261       .  A
O1000     Al1004   1.790       .  S
O1001      C1002   1.258       .  A
C1002      C1033   1.473       .  S
C1003      C1053   1.475       .  S
C1006      C1023   1.483       .  S
C1007      O1008   1.260       .  A
C1007      C1063   1.479       .  S
C1009      C1010   1.404       .  A
C1009      C1014   1.409       .  A
C1009     Br1016   1.931       .  S
C1010      C1011   1.406       .  A
C1011      C1012   1.405       .  A
C1011     Br1018   1.930       .  S
C1012      C1013   1.414       .  A
C1012     Br1017   1.933       .  S
C1013      C1014   1.416       .  A
C1014     Br1015   1.929       .  S
C1019      C1020   1.409       .  A
C1019      C1024   1.409       .  A
C1019     Br1026   1.930       .  S
C1020      C1021   1.404       .  A
C1021      C1022   1.408       .  A
C1021     Br1028   1.929       .  S
C1022      C1023   1.415       .  A
C1022     Br1027   1.928       .  S
C1023      C1024   1.415       .  A
C1024     Br1025   1.933       .  S
C1029      C1030   1.416       .  A
C1029      C1450   1.411   1_545  A
C1029     Br1452   1.932       .  S
C1030      C1031   1.413       .  A
C1031      C1032   1.404       .  A
C1031     Br1038   1.933       .  S
C1032      C1449   1.406   1_545  A
C1032     Br1037   1.929       .  S
C1033      C1448   1.406       .  A
C1033      C1034   1.407       .  A
C1034      C1445   1.411       .  A
C1034     Br1035   1.926       .  S
Br1036     C1445   1.932       .  S
C1039      C1456   1.417   1_545  A
C1039      C1044   1.410       .  A
C1039     Br1046   1.933       .  S
C1040      C1455   1.417       .  A
C1040      C1041   1.419       .  A
C1041      C1042   1.412       .  A
C1041     Br1048   1.930       .  S
C1042      C1459   1.406       .  A
C1042     Br1047   1.931       .  S
C1043      C1458   1.406       .  A
C1043      C1044   1.408       .  A
C1044     Br1045   1.932       .  S
C1049      C1050   1.412       .  A
C1049      C1054   1.409       .  A
C1049     Br1056   1.930       .  S
C1050      C1051   1.412       .  A
C1051      C1052   1.407       .  A
C1051     Br1058   1.925       .  S
C1052      C1053   1.408       .  A
C1052     Br1057   1.933       .  S
C1053      C1054   1.409       .  A
C1054     Br1055   1.929       .  S
C1059      C1060   1.410       .  A
C1059      C1064   1.413       .  A
C1059     Br1066   1.930       .  S
C1060      C1061   1.408       .  A
C1061      C1062   1.407       .  A
C1061     Br1068   1.929       .  S
C1062      C1063   1.408       .  A
C1062     Br1067   1.927       .  S
C1063      C1064   1.412       .  A
C1064     Br1065   1.930       .  S
C1069      C1070   1.413       .  A
C1069      C1074   1.412       .  A
C1069     Br1076   1.926       .  S
C1070      C1071   1.412       .  A
C1071      C1072   1.413       .  A
C1071     Br1078   1.929       .  S
C1072      C1073   1.411       .  A
C1072     Br1077   1.929       .  S
C1073      C1074   1.409       .  A
C1074     Br1075   1.930       .  S
C1079      C1080   1.418       .  A
C1079      C1084   1.405       .  A
C1079     Br1086   1.933       .  S
C1080      C1081   1.420       .  A
C1081      C1082   1.407       .  A
C1081     Br1088   1.935       .  S
C1082      C1083   1.408       .  A
C1082     Br1087   1.933       .  S
C1083      C1084   1.409       .  A
C1084     Br1085   1.935       .  S
C1089      C1506   1.408       .  A
C1089      C1094   1.411       .  A
C1089     Br1096   1.931       .  S
C1090      C1505   1.408   1_545  A
C1090      C1091   1.411       .  A
C1091      C1092   1.411       .  A
C1091     Br1098   1.931       .  S
C1092      C1509   1.411   1_545  A
C1092     Br1097   1.931       .  S
C1093      C1508   1.411       .  A
C1093      C1094   1.412       .  A
C1094     Br1095   1.927       .  S
C1099      C1100   1.414       .  A
C1099      C1520   1.408       .  A
C1099     Br1106   1.932       .  S
C1100      C1101   1.414       .  A
C1101      C1518   1.406       .  A
C1101     Br1108   1.936       .  S
C1102      C1517   1.406       .  A
C1102      C1103   1.413   1_565  A
C1102     Br1107   1.930       .  S
C1103      C1104   1.413       .  A
C1104      C1515   1.408   1_545  A
C1104     Br1105   1.933       .  S
C1109      C1110   1.413       .  A
C1109      C1530   1.410   1_545  A
C1109     Br1116   1.935       .  S
C1110      C1111   1.416       .  A
C1111      C1528   1.415   1_545  A
C1111     Br1118   1.936       .  S
C1112      C1527   1.415       .  A
C1112      C1113   1.426       .  A
C1112     Br1117   1.939       .  S
C1113      C1114   1.422       .  A
C1114      C1525   1.410       .  A
C1114     Br1115   1.936       .  S
C1119      C1120   1.409       .  A
C1119      C1124   1.404       .  A
C1119     Br1126   1.928       .  S
C1120      C1121   1.411       .  A
C1121      C1122   1.404       .  A
C1121     Br1128   1.932       .  S
C1122      C1123   1.404       .  A
C1122     Br1127   1.926       .  S
C1123      C1124   1.406       .  A
C1124     Br1125   1.930       .  S
C1129      C1130   1.409       .  A
C1129      C1134   1.407       .  A
C1129     Br1136   1.929       .  S
C1130      C1131   1.411       .  A
C1131      C1132   1.410       .  A
C1131     Br1138   1.926       .  S
C1132      C1133   1.409       .  A
C1132     Br1137   1.928       .  S
C1133      C1134   1.408       .  A
C1134     Br1135   1.929       .  S
C1139      C1140   1.424       .  A
C1139      C1144   1.413       .  A
C1139     Br1146   1.935       .  S
C1140      C1141   1.422       .  A
C1141      C1142   1.406       .  A
C1141     Br1148   1.936       .  S
C1142      C1143   1.404       .  A
C1142     Br1147   1.928       .  S
C1143      C1144   1.408       .  A
C1144     Br1145   1.933       .  S
C1149      C1566   1.411       .  A
C1149      C1154   1.409   1_565  A
C1149     Br1156   1.928   1_565  S
C1150      C1565   1.411       .  A
C1150      C1151   1.410       .  A
C1151      C1152   1.408       .  A
C1151     Br1158   1.932       .  S
C1152      C1569   1.413       .  A
C1152     Br1157   1.933       .  S
C1153      C1568   1.413   1_545  A
C1153      C1154   1.409       .  A
C1154     Br1155   1.931       .  S
C1159      C1160   1.424       .  A
C1159      C1580   1.406   1_545  A
C1159     Br1166   1.937       .  S
C1160      C1577   1.424   1_545  A
C1161      C1576   1.424       .  A
C1161      C1162   1.411       .  A
C1161     Br1168   1.935       .  S
C1162      C1163   1.406       .  A
C1162     Br1167   1.934       .  S
C1163      C1164   1.403       .  A
C1164      C1575   1.406       .  A
C1164     Br1165   1.929       .  S
C1169      C1170   1.411       .  A
C1169      C1174   1.414       .  A
C1169     Br1176   1.930       .  S
C1170      C1171   1.407       .  A
C1171      C1172   1.409       .  A
C1171     Br1178   1.930       .  S
C1172      C1173   1.413       .  A
C1172     Br1177   1.929       .  S
C1173      C1174   1.415       .  A
C1174     Br1175   1.933       .  S
C1179      C1180   1.424       .  A
C1179      C1184   1.415       .  A
C1179     Br1186   1.938       .  S
C1180      C1181   1.420       .  A
C1181      C1182   1.412       .  A
C1181     Br1188   1.940       .  S
C1182      C1183   1.420       .  A
C1182     Br1187   1.937       .  S
C1183      C1184   1.418       .  A
C1184     Br1185   1.938       .  S
C1189      C1194   1.413       .  A
C1189     Br1196   1.930       .  S
C1190      C1191   1.407   1_556  A
C1191      C1192   1.408       .  A
C1191     Br1198   1.932       .  S
C1192      C1609   1.414   1_655  A
C1192     Br1197   1.926       .  S
C1193      C1608   1.414   1_455  A
C1194     Br1195   1.931       .  S
C1199      C1200   1.411   1_554  A
C1199      C1204   1.411       .  A
C1199     Br1206   1.930       .  S
C1201      C1202   1.411       .  A
C1201     Br1208   1.927       .  S
C1202     Br1207   1.930       .  S
C1203      C1204   1.412       .  A
C1204     Br1205   1.929       .  S
C1209      C1210   1.411       .  A
C1209      C1214   1.404       .  A
C1209     Br1216   1.934       .  S
C1210      C1211   1.414       .  A
C1211      C1212   1.411       .  A
C1211     Br1218   1.929       .  S
C1212      C1213   1.407       .  A
C1212     Br1217   1.929       .  S
C1213      C1214   1.408       .  A
C1214     Br1215   1.928       .  S
C1219      C1220   1.403       .  A
C1219      C1224   1.407       .  A
C1219     Br1226   1.931       .  S
C1220      C1221   1.407       .  A
C1221      C1222   1.408       .  A
C1221     Br1228   1.931       .  S
C1222      C1223   1.416       .  A
C1222     Br1227   1.934       .  S
C1223      C1224   1.417       .  A
C1224     Br1225   1.929       .  S
C1229      C1230   1.408       .  A
C1229      C1234   1.410       .  A
C1229     Br1236   1.931       .  S
C1230      C1647   1.406       .  A
C1231      C1646   1.406   1_545  A
C1231      C1232   1.412       .  A
C1231     Br1238   1.930       .  S
C1232      C1233   1.417       .  A
C1232     Br1237   1.929       .  S
C1233      C1650   1.417   1_545  A
C1234      C1649   1.416       .  A
C1234     Br1235   1.932       .  S
C1239      C1240   1.405   1_565  A
C1239      C1660   1.406       .  A
C1239     Br1246   1.933   1_565  S
C1240      C1657   1.403       .  A
C1241      C1656   1.403       .  A
C1241      C1242   1.404       .  A
C1241     Br1248   1.928       .  S
C1242      C1243   1.416       .  A
C1242     Br1247   1.931       .  S
C1243      C1244   1.418       .  A
C1244      C1655   1.406       .  A
C1244     Br1245   1.934       .  S
O1249      C1264   1.261       .  A
O1249     Al1257   1.920       .  S
C1250      O1260   1.261       .  A
C1250      O1251   1.257       .  A
C1250      C1629   1.473       .  S
O1251     Al1253   1.894       .  S
O1252      C1254   1.262       .  A
Al1253     O1261   1.912       .  S
Al1253     O1262   1.789       .  S
C1254      O1267   1.260       .  A
C1254      C1639   1.485       .  S
O1255     Al1257   1.928       .  S
O1256     Al1266   1.916       .  S
Al1257     O1270   1.903       .  S
Al1257     O1267   1.897       .  S
O1258      C1265   1.261       .  A
O1258     Al1266   1.902       .  S
O1259      C1268   1.258       .  A
O1259     Al1266   1.886       .  S
O1260     Al1266   1.920       .  S
O1261      C1268   1.262       .  A
O1262     Al1266   1.790       .  S
O1263      C1264   1.258       .  A
C1264      C1646   1.478       .  S
C1265      C1616   1.483       .  S
C1268      C1659   1.481       .  S
C1269      O1270   1.261       .  A
C1269      C1606   1.479       .  S
O1271      C1286   1.262       .  A
O1271     Al1279   1.895       .  S
C1272      O1282   1.263       .  A
C1272      O1273   1.265       .  A
C1272      C1649   1.491       .  S
O1273     Al1275   1.924       .  S
O1274      C1276   1.255       .  A
O1274     Al1275   1.888       .  S
Al1275     O1283   1.882       .  S
Al1275     O1285   1.918       .  S
Al1275     O1284   1.788       .  S
C1276      O1289   1.258       .  A
C1276      C1636   1.470       .  S
O1277      C1287   1.263       .  A
O1277     Al1279   1.911       .  S
O1278      C1291   1.261       .  A
O1278     Al1288   1.907       .  S
Al1279     O1292   1.929       .  S
Al1279     O1289   1.914       .  S
Al1279     O1284   1.785       .  S
O1280      C1287   1.263       .  A
O1280     Al1288   1.926       .  S
O1281      C1290   1.258       .  A
O1281     Al1288   1.906       .  S
O1282     Al1288   1.906       .  S
O1283      C1290   1.254       .  A
O1284     Al1288   1.785       .  S
O1285      C1286   1.265       .  A
C1286      C1626   1.478       .  S
C1287      C1599   1.505       .  S
C1290      C1656   1.465       .  S
C1291      O1292   1.263       .  A
C1291      C1586   1.481       .  S
O1293      C1308   1.263       .  A
O1293     Al1301   1.901       .  S
C1294      O1304   1.261       .  A
C1294      O1295   1.258       .  A
C1294      C1546   1.476       .  S
O1295     Al1297   1.903       .  S
O1296      C1298   1.257       .  A
O1296     Al1297   1.896       .  S
Al1297     O1305   1.897       .  S
Al1297     O1307   1.923       .  S
Al1297     O1306   1.780       .  S
C1298      O1311   1.260       .  A
C1298      C1556   1.499       .  S
O1299      C1309   1.260       .  A
O1299     Al1301   1.884       .  S
O1300      C1313   1.258       .  A
O1300     Al1310   1.908       .  S
Al1301     O1314   1.923       .  S
Al1301     O1311   1.928       .  S
Al1301     O1306   1.788       .  S
O1302      C1309   1.264       .  A
O1302     Al1310   1.916       .  S
O1303      C1312   1.262       .  A
O1303     Al1310   1.907       .  S
O1304     Al1310   1.909       .  S
O1305      C1312   1.260       .  A
O1306     Al1310   1.782       .  S
O1307      C1308   1.265       .  A
C1308      C1566   1.477       .  S
C1309      C1536   1.468       .  S
C1312      C1579   1.476       .  S
C1313      O1314   1.261       .  A
C1313      C1529   1.510       .  S
O1315      C1330   1.260       .  A
C1316      O1326   1.264       .  A
C1316      O1317   1.261       .  A
C1316      C1569   1.477       .  S
O1318      C1320   1.262       .  A
Al1319     O1327   1.896       .  S
Al1319     O1329   1.902       .  S
Al1319     O1328   1.781       .  S
C1320      O1333   1.267       .  A
C1320      C1559   1.481       .  S
O1321      C1331   1.256       .  A
O1321     Al1323   1.900       .  S
O1322      C1335   1.263       .  A
O1322     Al1332   1.896       .  S
Al1323     O1333   1.923       .  S
O1324      C1331   1.262       .  A
O1325      C1334   1.265       .  A
O1325     Al1332   1.933       .  S
O1327      C1334   1.258       .  A
O1328     Al1332   1.785       .  S
O1329      C1330   1.256       .  A
C1330      C1549   1.474       .  S
C1331      C1596   1.508       .  S
C1334      C1576   1.499       .  S
C1335      O1336   1.268       .  A
C1335      C1589   1.488       .  S
O1337      C1352   1.260       .  A
O1337     Al1345   1.901       .  S
C1338      O1348   1.262       .  A
C1338      O1339   1.261       .  A
C1338      C1486   1.487       .  S
O1339     Al1341   1.924       .  S
O1340      C1342   1.260       .  A
O1340     Al1341   1.894       .  S
Al1341     O1349   1.898       .  S
Al1341     O1351   1.929       .  S
Al1341     O1350   1.778       .  S
C1342      O1355   1.264       .  A
C1342      C1496   1.489       .  S
O1343      C1353   1.259       .  A
O1343     Al1345   1.883       .  S
O1344      C1357   1.261       .  A
O1344     Al1354   1.904       .  S
Al1345     O1358   1.925       .  S
Al1345     O1355   1.926       .  S
Al1345     O1350   1.784       .  S
O1346      C1353   1.262       .  A
O1346     Al1354   1.913       .  S
O1347      C1356   1.264       .  A
O1347     Al1354   1.916       .  S
O1348     Al1354   1.916       .  S
O1349      C1356   1.262       .  A
O1350     Al1354   1.781       .  S
O1351      C1352   1.263       .  A
C1352      C1506   1.478       .  S
C1353      C1539   1.462       .  S
C1356      C1519   1.484       .  S
C1357      O1358   1.261       .  A
C1357      C1526   1.499       .  S
O1359      C1374   1.258       .  A
C1360      O1370   1.260       .  A
C1360      O1361   1.256       .  A
C1360      C1489   1.483       .  S
O1362      C1364   1.259       .  A
Al1363     O1371   1.886   1_455  S
Al1363     O1373   1.916   1_455  S
C1364      O1377   1.264       .  A
C1364      C1516   1.484       .  S
O1365      C1375   1.259       .  A
O1365     Al1367   1.898       .  S
O1366      C1379   1.260       .  A
O1366     Al1376   1.901       .  S
Al1367     O1377   1.918       .  S
Al1367     O1372   1.797       .  S
O1368      C1375   1.259       .  A
O1369      C1378   1.263       .  A
O1369     Al1376   1.913       .  S
O1371      C1378   1.260       .  A
O1373      C1374   1.258       .  A
C1374      C1509   1.482       .  S
C1375      C1466   1.480       .  S
C1378      C1499   1.475       .  S
C1379      O1380   1.260       .  A
C1379      C1476   1.478       .  S
O1381      C1396   1.258       .  A
O1381     Al1389   1.894       .  S
C1382      O1392   1.261       .  A
C1382      O1383   1.261       .  A
C1382      C1446   1.481       .  S
O1383     Al1385   1.910   1_655  S
O1384      C1386   1.258       .  A
Al1385     O1393   1.893   1_455  S
Al1385     O1394   1.800       .  S
C1386      O1399   1.262       .  A
C1386      C1459   1.478       .  S
O1387     Al1389   1.910       .  S
O1388     Al1398   1.907       .  S
Al1389     O1402   1.919       .  S
Al1389     O1399   1.921       .  S
O1390      C1397   1.259   1_655  A
O1390     Al1398   1.912       .  S
O1391      C1400   1.259       .  A
O1391     Al1398   1.915       .  S
O1392     Al1398   1.896       .  S
O1393      C1400   1.257       .  A
O1394     Al1398   1.793   1_455  S
O1395      C1396   1.258       .  A
C1396      C1429   1.481       .  S
C1397      C1609   1.487       .  S
C1400      C1436   1.473       .  S
C1401      O1402   1.263       .  A
C1401      C1619   1.483       .  S
O1403      C1418   1.264       .  A
O1403     Al1411   1.926       .  S
C1404      O1414   1.262       .  A
C1404      O1405   1.258       .  A
C1404      C1426   1.468       .  S
O1405     Al1407   1.889       .  S
O1406      C1408   1.261       .  A
O1406     Al1407   1.919       .  S
Al1407     O1415   1.914       .  S
Al1407     O1417   1.890       .  S
Al1407     O1416   1.790       .  S
C1408      O1421   1.259       .  A
C1408      C1456   1.493       .  S
O1409      C1419   1.261       .  A
O1409     Al1411   1.914       .  S
O1410      C1423   1.262       .  A
O1410     Al1420   1.919       .  S
Al1411     O1424   1.902       .  S
Al1411     O1421   1.902       .  S
Al1411     O1416   1.790       .  S
O1412      C1419   1.259       .  A
O1412     Al1420   1.892       .  S
O1413      C1422   1.260       .  A
O1413     Al1420   1.898       .  S
O1414     Al1420   1.916       .  S
O1415      C1422   1.261       .  A
O1416     Al1420   1.790       .  S
O1417      C1418   1.258       .  A
C1418      C1449   1.473       .  S
C1419      C1469   1.475       .  S
C1422      C1439   1.483       .  S
C1423      O1424   1.260       .  A
C1423      C1479   1.479       .  S
C1425      C1426   1.404       .  A
C1425      C1430   1.409       .  A
C1425     Br1432   1.931       .  S
C1426      C1427   1.406       .  A
C1427      C1428   1.405       .  A
C1427     Br1434   1.930       .  S
C1428      C1429   1.414       .  A
C1428     Br1433   1.933       .  S
C1429      C1430   1.416       .  A
C1430     Br1431   1.929       .  S
C1435      C1436   1.409       .  A
C1435      C1440   1.409       .  A
C1435     Br1442   1.930       .  S
C1436      C1437   1.404       .  A
C1437      C1438   1.408       .  A
C1437     Br1444   1.929       .  S
C1438      C1439   1.415       .  A
C1438     Br1443   1.929       .  S
C1439      C1440   1.415       .  A
C1440     Br1441   1.933       .  S
C1445      C1446   1.416       .  A
C1446      C1447   1.413       .  A
C1447      C1448   1.404       .  A
C1447     Br1454   1.933       .  S
C1448     Br1453   1.929       .  S
C1449      C1450   1.407       .  A
C1450     Br1451   1.926       .  S
C1455      C1460   1.410       .  A
C1455     Br1462   1.933       .  S
C1456      C1457   1.419       .  A
C1457      C1458   1.412   1_565  A
C1457     Br1464   1.930       .  S
C1458     Br1463   1.931   1_545  S
C1459      C1460   1.408       .  A
C1460     Br1461   1.932       .  S
C1465      C1466   1.412       .  A
C1465      C1470   1.409       .  A
C1465     Br1472   1.930       .  S
C1466      C1467   1.412       .  A
C1467      C1468   1.407       .  A
C1467     Br1474   1.925       .  S
C1468      C1469   1.408       .  A
C1468     Br1473   1.933       .  S
C1469      C1470   1.409       .  A
C1470     Br1471   1.929       .  S
C1475      C1476   1.410       .  A
C1475      C1480   1.413       .  A
C1475     Br1482   1.930       .  S
C1476      C1477   1.408       .  A
C1477      C1478   1.407       .  A
C1477     Br1484   1.929       .  S
C1478      C1479   1.408       .  A
C1478     Br1483   1.927       .  S
C1479      C1480   1.412       .  A
C1480     Br1481   1.930       .  S
C1485      C1486   1.413       .  A
C1485      C1490   1.412       .  A
C1485     Br1492   1.926       .  S
C1486      C1487   1.412       .  A
C1487      C1488   1.413       .  A
C1487     Br1494   1.929       .  S
C1488      C1489   1.411       .  A
C1488     Br1493   1.929       .  S
C1489      C1490   1.409       .  A
C1490     Br1491   1.930       .  S
C1495      C1496   1.418       .  A
C1495      C1500   1.405       .  A
C1495     Br1502   1.933       .  S
C1496      C1497   1.420       .  A
C1497      C1498   1.407       .  A
C1497     Br1504   1.935       .  S
C1498      C1499   1.408       .  A
C1498     Br1503   1.933       .  S
C1499      C1500   1.409       .  A
C1500     Br1501   1.935       .  S
C1505      C1510   1.411       .  A
C1505     Br1512   1.931       .  S
C1506      C1507   1.411       .  A
C1507      C1508   1.411       .  A
C1507     Br1514   1.931       .  S
C1508     Br1513   1.931       .  S
C1509      C1510   1.412       .  A
C1510     Br1511   1.927       .  S
C1515      C1516   1.414       .  A
C1515     Br1522   1.932       .  S
C1516      C1517   1.414       .  A
C1517     Br1524   1.936       .  S
C1518      C1519   1.413       .  A
C1518     Br1523   1.930       .  S
C1519      C1520   1.413       .  A
C1520     Br1521   1.933       .  S
C1525      C1526   1.413       .  A
C1525     Br1532   1.935       .  S
C1526      C1527   1.416       .  A
C1527     Br1534   1.936       .  S
C1528      C1529   1.426       .  A
C1528     Br1533   1.939       .  S
C1529      C1530   1.422       .  A
C1530     Br1531   1.936       .  S
C1535      C1536   1.409       .  A
C1535      C1540   1.404       .  A
C1535     Br1542   1.928       .  S
C1536      C1537   1.411       .  A
C1537      C1538   1.404       .  A
C1537     Br1544   1.932       .  S
C1538      C1539   1.404       .  A
C1538     Br1543   1.926       .  S
C1539      C1540   1.406       .  A
C1540     Br1541   1.930       .  S
C1545      C1546   1.409       .  A
C1545      C1550   1.407       .  A
C1545     Br1552   1.929       .  S
C1546      C1547   1.411       .  A
C1547      C1548   1.410       .  A
C1547     Br1554   1.926       .  S
C1548      C1549   1.409       .  A
C1548     Br1553   1.928       .  S
C1549      C1550   1.408       .  A
C1550     Br1551   1.929       .  S
C1555      C1556   1.424       .  A
C1555      C1560   1.413       .  A
C1555     Br1562   1.935       .  S
C1556      C1557   1.422       .  A
C1557      C1558   1.406       .  A
C1557     Br1564   1.936       .  S
C1558      C1559   1.404       .  A
C1558     Br1563   1.928       .  S
C1559      C1560   1.408       .  A
C1560     Br1561   1.933       .  S
C1565      C1570   1.409       .  A
C1565     Br1572   1.928       .  S
C1566      C1567   1.410       .  A
C1567      C1568   1.408       .  A
C1567     Br1574   1.932       .  S
C1568     Br1573   1.933       .  S
C1569      C1570   1.409       .  A
C1570     Br1571   1.930       .  S
C1575      C1576   1.424       .  A
C1575     Br1582   1.937       .  S
C1577      C1578   1.411       .  A
C1577     Br1584   1.935       .  S
C1578      C1579   1.406       .  A
C1578     Br1583   1.934       .  S
C1579      C1580   1.403       .  A
C1580     Br1581   1.929   1_565  S
C1585      C1586   1.411       .  A
C1585      C1590   1.414       .  A
C1585     Br1592   1.930       .  S
C1586      C1587   1.407       .  A
C1587      C1588   1.409       .  A
C1587     Br1594   1.930       .  S
C1588      C1589   1.413       .  A
C1588     Br1593   1.929       .  S
C1589      C1590   1.415       .  A
C1590     Br1591   1.933       .  S
C1595      C1596   1.424       .  A
C1595      C1600   1.415       .  A
C1595     Br1602   1.938       .  S
C1596      C1597   1.420       .  A
C1597      C1598   1.412       .  A
C1597     Br1604   1.940       .  S
C1598      C1599   1.420       .  A
C1598     Br1603   1.937       .  S
C1599      C1600   1.418       .  A
C1600     Br1601   1.938       .  S
C1605      C1610   1.413       .  A
C1605     Br1612   1.930       .  S
C1606      C1607   1.407   1_556  A
C1607      C1608   1.408   1_565  A
C1607     Br1614   1.932       .  S
C1608     Br1613   1.926   1_545  S
C1610     Br1611   1.931       .  S
C1615      C1616   1.411   1_554  A
C1615      C1620   1.411       .  A
C1615     Br1622   1.930       .  S
C1617      C1618   1.411       .  A
C1617     Br1624   1.927       .  S
C1618     Br1623   1.930       .  S
C1619      C1620   1.412       .  A
C1620     Br1621   1.929       .  S
C1625      C1626   1.411       .  A
C1625      C1630   1.404       .  A
C1625     Br1632   1.934       .  S
C1626      C1627   1.414       .  A
C1627      C1628   1.411       .  A
C1627     Br1634   1.929       .  S
C1628      C1629   1.407       .  A
C1628     Br1633   1.929       .  S
C1629      C1630   1.408       .  A
C1630     Br1631   1.928       .  S
C1635      C1636   1.403       .  A
C1635      C1640   1.407       .  A
C1635     Br1642   1.931       .  S
C1636      C1637   1.407       .  A
C1637      C1638   1.408       .  A
C1637     Br1644   1.931       .  S
C1638      C1639   1.416       .  A
C1638     Br1643   1.934       .  S
C1639      C1640   1.417       .  A
C1640     Br1641   1.929       .  S
C1645      C1646   1.408       .  A
C1645      C1650   1.410       .  A
C1645     Br1652   1.931       .  S
C1647      C1648   1.412       .  A
C1647     Br1654   1.930       .  S
C1648      C1649   1.417       .  A
C1648     Br1653   1.929       .  S
C1650     Br1651   1.932       .  S
C1655      C1656   1.405       .  A
C1655     Br1662   1.933       .  S
C1657      C1658   1.404   1_545  A
C1657     Br1664   1.928       .  S
C1658      C1659   1.416       .  A
C1658     Br1663   1.931       .  S
C1659      C1660   1.418       .  A
C1660     Br1661   1.934       .  S
