geometry optimzed in LAMMPS
_audit_creation_date              2020-11-30 
_audit_creation_method            'lammps2cif' 
_symmetry_space_group_name_H-M    'P1' 
_symmetry_Int_Tables_number       1 
_symmetry_cell_setting            triclinic 
loop_ 
_symmetry_equiv_pos_as_xyz 
  x,y,z 
_cell_length_a                    99.34911688 
_cell_length_b                    51.809475921962175 
_cell_length_c                    27.72923020803044 
_cell_angle_alpha                 90.00277201524246 
_cell_angle_beta                  90.00792898077317 
_cell_angle_gamma                 90.01773497626257 
loop_ 
_atom_site_label 
_atom_site_type_symbol 
_atom_site_fract_x 
_atom_site_fract_y 
_atom_site_fract_z 
_atom_site_charge 
Zr1        Zr  0.69975235  0.47631078  0.16144831     2.17500
O2          O  0.71494707  0.44679087  0.11973383    -0.50900
O3          O  0.69378678  0.48489998  0.07706095    -0.74100
O4          O  0.69201354  0.43089515  0.16265904    -0.80900
O5          O  0.72822291  0.52614090  0.17917510    -0.82600
O6          O  0.67237786  0.42815502  0.20466668    -0.78200
O7          O  0.72327687  0.48657141  0.14791087    -0.89900
O8          O  0.67963261  0.51924730  0.07306272    -0.75800
O9          O  0.67631556  0.48557894  0.16033047    -0.85300
O10         O  0.69794031  0.52215508  0.15432856    -0.85000
O11         O  0.69194952  0.46119653  0.23856696    -0.71800
O12         O  0.71129810  0.49503444  0.22955685    -0.83900
Zr13       Zr  0.67632378  0.53327813  0.29982728     2.26400
Zr14       Zr  0.66831011  0.47059465  0.23705188     2.06300
Zr15       Zr  0.70850936  0.54071465  0.22379756     2.10000
Zr16       Zr  0.67459613  0.53150010  0.15461460     1.78800
O17         O  0.72798701  0.54903722  0.27481114    -0.92700
O18         O  0.65300422  0.52058736  0.11813397    -0.40500
O19         O  0.68489577  0.54989597  0.22462956    -0.77200
O20         O  0.66551756  0.51636881  0.22862807    -0.95800
O21         O  0.67923266  0.48797751  0.30687634    -0.89200
O22         O  0.70002814  0.52581224  0.29973922    -0.92000
C23         C  0.68678563  0.50162420  0.05376123     1.01800
C24         C  0.73123813  0.50559053  0.15560640     1.14700
C25         C  0.68210448  0.41814607  0.18099902     1.05500
O26         O  0.64975142  0.45787018  0.18481681    -0.94100
O27         O  0.64776675  0.48463824  0.27523577    -0.89900
O28         O  0.65223564  0.52359408  0.30970610    -0.83000
C29         C  0.64426215  0.50509190  0.29780304     1.12100
O30         O  0.72063086  0.44840173  0.29284070    -0.96100
Zr31       Zr  0.70296550  0.48040933  0.30557027     1.88900
O32         O  0.68069149  0.52046683  0.38390353    -0.72800
O33         O  0.66288075  0.44034894  0.30143528    -0.52000
O34         O  0.69732380  0.43934184  0.34339309    -0.96700
O35         O  0.72418191  0.49416668  0.34183524    -0.53900
O36         O  0.69714190  0.49007096  0.38762936    -0.73300
C37         C  0.68847254  0.50494691  0.40706284     0.99100
O38         O  0.66385498  0.56732960  0.34115651    -0.62100
O39         O  0.71343699  0.57578704  0.16795363    -0.56900
O40         O  0.68470748  0.57743470  0.30563125    -0.93600
O41         O  0.70403243  0.58191745  0.26216061    -0.92000
O42         O  0.68260034  0.57136799  0.11798027    -0.92400
O43         O  0.65799417  0.56601385  0.15885649    -0.91200
C44         C  0.69471302  0.59061816  0.28970572     1.17900
H45         H  0.70222174  0.52827176  0.12520350     0.33800
H46         H  0.65622378  0.52141272  0.22541621     0.44700
H47         H  0.70419875  0.53490369  0.32624096     0.38200
H48         H  0.69378023  0.44320737  0.24433406     0.34700
H49         H  0.65265724  0.53078481  0.08793865     0.26500
H50         H  0.65718073  0.42701513  0.28602725     0.32400
H51         H  0.70223318  0.43933906  0.37446972     0.38300
H52         H  0.67856508  0.57154263  0.08532780     0.32800
H53         H  0.72198467  0.58328397  0.17983071     0.31700
H54         H  0.73206998  0.56492156  0.26139090     0.33400
H55         H  0.72484667  0.48420845  0.37221353     0.32300
H56         H  0.65932841  0.57378225  0.19113144     0.36300
H57         H  0.65637318  0.57212261  0.31927026     0.29100
H58         H  0.70941854  0.43790010  0.09512079     0.33300
H59         H  0.72377435  0.44325741  0.32533125     0.36100
H60         H  0.71587821  0.56730713  0.13718983     0.28700
H61         H  0.65947719  0.55896819  0.36915304     0.41600
H62         H  0.64560138  0.47434073  0.17451622     0.31700
H63         H  0.65404004  0.50252837  0.10710890     0.39300
H64         H  0.72277768  0.51217228  0.35256295     0.31100
H65         H  0.67147071  0.43142435  0.30844690     0.31200
H66         H  0.71730991  0.43327096  0.14355154     0.31500
Zr67       Zr  0.69978523  0.47635242  0.66163914     2.17500
O68         O  0.71458592  0.44652316  0.61878485    -0.50900
O69         O  0.69395547  0.48547815  0.57723926    -0.74100
O70         O  0.69200046  0.43096588  0.66284686    -0.80900
O71         O  0.72830278  0.52597757  0.68029822    -0.82600
O72         O  0.67242124  0.42819070  0.70516250    -0.78200
O73         O  0.72341399  0.48630793  0.64931747    -0.89900
O74         O  0.67943317  0.51927314  0.57343783    -0.75800
O75         O  0.67632035  0.48548040  0.66111909    -0.85300
O76         O  0.69786847  0.52216045  0.65428447    -0.85000
O77         O  0.69209748  0.46114726  0.73886747    -0.71800
O78         O  0.71132557  0.49533971  0.72954670    -0.83900
Zr79       Zr  0.67640411  0.53332669  0.80026511     2.26400
Zr80       Zr  0.66845542  0.47051693  0.73810427     2.06300
Zr81       Zr  0.70844800  0.54101990  0.72341770     2.10000
Zr82       Zr  0.67450910  0.53139373  0.65518156     1.78800
O83         O  0.72855072  0.55169921  0.76958698    -0.92700
O84         O  0.65279071  0.52036142  0.61990085    -0.40500
O85         O  0.68483903  0.55000865  0.72494102    -0.77200
O86         O  0.66555105  0.51623340  0.72928283    -0.95800
O87         O  0.67940343  0.48804337  0.80770302    -0.89200
O88         O  0.70012312  0.52594067  0.79946461    -0.92000
C89         C  0.68678874  0.50198979  0.55400716     1.01800
C90         C  0.73137470  0.50532102  0.65717969     1.14700
C91         C  0.68210080  0.41822083  0.68122746     1.05500
O92         O  0.64949565  0.45712153  0.68847322    -0.94100
O93         O  0.64799881  0.48458494  0.77669505    -0.89900
O94         O  0.65232013  0.52384484  0.81012352    -0.83000
C95         C  0.64442118  0.50513896  0.79874592     1.12100
O96         O  0.72102428  0.44904435  0.79276190    -0.96100
Zr97       Zr  0.70313168  0.48054996  0.80558179     1.88900
O98         O  0.68071414  0.52017153  0.88407754    -0.72800
O99         O  0.66298988  0.44058559  0.80298461    -0.52000
O100        O  0.69725127  0.43909129  0.84147052    -0.96700
O101        O  0.72416241  0.49432445  0.84337104    -0.53900
O102        O  0.69716716  0.48976350  0.88753876    -0.73300
C103        C  0.68848920  0.50457613  0.90704869     0.99100
O104        O  0.66409558  0.56769256  0.84148917    -0.62100
O105        O  0.71186914  0.57488483  0.66360046    -0.56900
O106        O  0.68482746  0.57733232  0.80748148    -0.93600
O107        O  0.70424406  0.58171895  0.76450999    -0.92000
O108        O  0.68231429  0.57145207  0.61872205    -0.92400
O109        O  0.65782451  0.56572557  0.66036032    -0.91200
C110        C  0.69493339  0.59041839  0.79216764     1.17900
H111        H  0.70209291  0.52823446  0.62504867     0.33800
H112        H  0.65624874  0.52114627  0.72604234     0.44700
H113        H  0.70433502  0.53505628  0.82584155     0.38200
H114        H  0.69395656  0.44315202  0.74453305     0.34700
H115        H  0.65220084  0.53087973  0.59014804     0.26500
H116        H  0.65500888  0.43100919  0.79122968     0.32400
H117        H  0.70237273  0.43833445  0.87206765     0.38300
H118        H  0.67811537  0.57178211  0.58634298     0.32800
H119        H  0.71910764  0.58581697  0.67719493     0.31700
H120        H  0.73201893  0.56771915  0.75458731     0.33400
H121        H  0.72447889  0.48500587  0.87452124     0.32300
H122        H  0.65713260  0.56958225  0.69524770     0.36300
H123        H  0.65656626  0.57247643  0.81979180     0.29100
H124        H  0.70887908  0.43766829  0.59463594     0.33300
H125        H  0.72393478  0.44345743  0.82527512     0.36100
H126        H  0.71610634  0.56623104  0.63562828     0.28700
H127        H  0.65975280  0.55949403  0.86970775     0.41600
H128        H  0.64552068  0.47345536  0.67664599     0.31700
H129        H  0.65388055  0.50244722  0.60813422     0.39300
H130        H  0.72288744  0.51261483  0.85253643     0.31100
H131        H  0.67035335  0.42771764  0.80278352     0.31200
H132        H  0.71707819  0.43300424  0.64243092     0.31500
Zr133      Zr  0.54901026  0.47647847  0.45625537     2.17500
O134        O  0.53472463  0.44742984  0.50306388    -0.50900
O135        O  0.55524704  0.48572279  0.54050679    -0.74100
O136        O  0.55666108  0.43098844  0.45369048    -0.80900
O137        O  0.52022764  0.52517556  0.43703899    -0.82600
O138        O  0.57624022  0.42838126  0.41131653    -0.78200
O139        O  0.52528806  0.48551504  0.46764663    -0.89900
O140        O  0.56938127  0.52009164  0.54459804    -0.75800
O141        O  0.57241951  0.48566578  0.45672543    -0.85300
O142        O  0.55080332  0.52237166  0.46329672    -0.85000
O143        O  0.55653508  0.46145152  0.37857871    -0.71800
O144        O  0.53730830  0.49524839  0.38835223    -0.83900
Zr145      Zr  0.57203891  0.53389707  0.31802225     2.26400
Zr146      Zr  0.58018671  0.47097346  0.37948037     2.06300
Zr147      Zr  0.53997940  0.54097685  0.39432907     2.10000
Zr148      Zr  0.57419538  0.53155790  0.46274898     1.78800
O149        O  0.52068703  0.55047187  0.34316751    -0.92700
O150        O  0.59581330  0.51749921  0.49506370    -0.40500
O151        O  0.56357158  0.55032530  0.39359197    -0.77200
O152        O  0.58310322  0.51672454  0.38838406    -0.95800
O153        O  0.56913197  0.48861019  0.31018086    -0.89200
O154        O  0.54833708  0.52627068  0.31813182    -0.92000
C155        C  0.56226063  0.50244076  0.56389263     1.01800
C156        C  0.51724134  0.50435875  0.45975598     1.14700
C157        C  0.56654674  0.41829392  0.43504222     1.05500
O158        O  0.59912566  0.45893938  0.43057701    -0.94100
O159        O  0.60046856  0.48493406  0.33968570    -0.89900
O160        O  0.59613145  0.52451005  0.30760126    -0.83000
C161        C  0.60402369  0.50564663  0.31812721     1.12100
O162        O  0.52725949  0.44956700  0.32278143    -0.96100
Zr163      Zr  0.54541986  0.48085382  0.31182584     1.88900
O164        O  0.56761007  0.52173521  0.23389010    -0.72800
O165        O  0.58579197  0.44087551  0.31510827    -0.52000
O166        O  0.55098730  0.43961023  0.27453503    -0.96700
O167        O  0.52440736  0.49473177  0.27409186    -0.53900
O168        O  0.55164411  0.49040392  0.23006183    -0.73300
C169        C  0.56006099  0.50584099  0.21071203     0.99100
O170        O  0.58392476  0.56819249  0.27526349    -0.62100
O171        O  0.53411584  0.57493811  0.45146075    -0.56900
O172        O  0.56386956  0.57808015  0.31325574    -0.93600
O173        O  0.54443038  0.58233752  0.35606197    -0.92000
O174        O  0.56780344  0.57040543  0.50650601    -0.92400
O175        O  0.59035034  0.56679572  0.45711635    -0.91200
C176        C  0.55379915  0.59114092  0.32877694     1.17900
H177        H  0.54658485  0.52843800  0.49257921     0.33800
H178        H  0.59241104  0.52168373  0.39146045     0.44700
H179        H  0.54416336  0.53546065  0.29179539     0.38200
H180        H  0.55467148  0.44349733  0.37260740     0.34700
H181        H  0.59739133  0.52871130  0.52343488     0.26500
H182        H  0.59312283  0.43009429  0.32849684     0.32400
H183        H  0.54582919  0.43928555  0.24397961     0.38300
H184        H  0.56003416  0.57739648  0.48839707     0.32800
H185        H  0.52536578  0.58168305  0.43991846     0.31700
H186        H  0.51589012  0.56459882  0.35997703     0.33400
H187        H  0.52428636  0.48602341  0.24230324     0.32300
H188        H  0.58874088  0.57446049  0.42491846     0.36300
H189        H  0.59129525  0.57369123  0.29706620     0.29100
H190        H  0.54071652  0.43931442  0.52721146     0.33300
H191        H  0.52426405  0.44454168  0.29003243     0.36100
H192        H  0.53192400  0.56592241  0.48193737     0.28700
H193        H  0.58849566  0.55973396  0.24779003     0.41600
H194        H  0.60457709  0.47486118  0.43361610     0.31700
H195        H  0.59407263  0.50022931  0.50902036     0.39300
H196        H  0.52554822  0.51321804  0.26622678     0.31100
H197        H  0.57795516  0.42912117  0.31300652     0.31200
H198        H  0.53214404  0.43326217  0.48090502     0.31500
Zr199      Zr  0.54906318  0.47654839  0.95638390     2.17500
O200        O  0.53488014  0.44758681  0.00378727    -0.50900
O201        O  0.55483178  0.48621345  0.04073504    -0.74100
O202        O  0.55649545  0.43092840  0.95428979    -0.80900
O203        O  0.52046593  0.52557575  0.93798311    -0.82600
O204        O  0.57602737  0.42803531  0.91176780    -0.78200
O205        O  0.52526091  0.48531689  0.96628666    -0.89900
O206        O  0.56927017  0.52013049  0.04448305    -0.75800
O207        O  0.57251843  0.48576686  0.95719408    -0.85300
O208        O  0.55084243  0.52246342  0.96322011    -0.85000
O209        O  0.55668726  0.46129548  0.87902524    -0.71800
O210        O  0.53746401  0.49517129  0.88816642    -0.83900
Zr211      Zr  0.57220714  0.53367139  0.81802071     2.26400
Zr212      Zr  0.58030107  0.47065215  0.88022615     2.06300
Zr213      Zr  0.54010891  0.54086969  0.89397221     2.10000
Zr214      Zr  0.57422784  0.53177356  0.96267110     1.78800
O215        O  0.52068759  0.54879789  0.84252287    -0.92700
O216        O  0.59615290  0.52090547  0.99649599    -0.40500
O217        O  0.56369005  0.55029416  0.89324672    -0.77200
O218        O  0.58316850  0.51645246  0.88867345    -0.95800
O219        O  0.56939669  0.48835416  0.81072519    -0.89200
O220        O  0.54852047  0.52598314  0.81797580    -0.92000
C221        C  0.56191012  0.50288300  0.06393538     1.01800
C222        C  0.51733396  0.50446658  0.95948884     1.14700
C223        C  0.56629733  0.41806797  0.93550501     1.05500
O224        O  0.59905232  0.45805872  0.93153646    -0.94100
O225        O  0.60063476  0.48446569  0.84068404    -0.89900
O226        O  0.59627309  0.52391295  0.80796038    -0.83000
C227        C  0.60417520  0.50511374  0.81885462     1.12100
O228        O  0.52734851  0.45016236  0.82595888    -0.96100
Zr229      Zr  0.54573455  0.48053039  0.81195775     1.88900
O230        O  0.56772736  0.52145454  0.73385451    -0.72800
O231        O  0.58596722  0.44037148  0.81620277    -0.52000
O232        O  0.55136095  0.43876309  0.77688765    -0.96700
O233        O  0.52546280  0.49469243  0.76974208    -0.53900
O234        O  0.55257161  0.48866676  0.73029775    -0.73300
C235        C  0.56062899  0.50474824  0.71080390     0.99100
O236        O  0.58407644  0.56775825  0.77467176    -0.62100
O237        O  0.53475017  0.57596199  0.94936590    -0.56900
O238        O  0.56409560  0.57805700  0.81402687    -0.93600
O239        O  0.54444218  0.58214029  0.85563402    -0.92000
O240        O  0.56710345  0.57144692  0.00235224    -0.92400
O241        O  0.59063374  0.56651959  0.95575943    -0.91200
C242        C  0.55393024  0.59105757  0.82908774     1.17900
H243        H  0.54657352  0.52866857  0.99230725     0.33800
H244        H  0.59247580  0.52137458  0.89182681     0.44700
H245        H  0.54430438  0.53503467  0.79155761     0.38200
H246        H  0.55475576  0.44336760  0.87306057     0.34700
H247        H  0.59671386  0.53091546  0.02686844     0.26500
H248        H  0.59269185  0.42861527  0.83075593     0.32400
H249        H  0.54642973  0.43817026  0.74587759     0.38300
H250        H  0.57247380  0.57224098  0.03241559     0.32800
H251        H  0.52653184  0.58400264  0.93585777     0.31700
H252        H  0.51528174  0.56173776  0.86026497     0.33400
H253        H  0.52397383  0.48157786  0.74432093     0.32300
H254        H  0.58939755  0.57328789  0.92266214     0.36300
H255        H  0.59157253  0.57309159  0.79605986     0.29100
H256        H  0.54096864  0.43880993  0.02679934     0.33300
H257        H  0.52489622  0.44309502  0.79397310     0.36100
H258        H  0.53168052  0.56748197  0.97939975     0.28700
H259        H  0.58848292  0.55918278  0.74698572     0.41600
H260        H  0.60384042  0.47439903  0.93850474     0.31700
H261        H  0.59528063  0.50275693  0.00716626     0.39300
H262        H  0.52808788  0.51036852  0.75164832     0.31100
H263        H  0.57780560  0.42961801  0.81215533     0.31200
H264        H  0.53185910  0.43388920  0.98131211     0.31500
Zr265      Zr  0.69978396  0.78077342  0.45700201     2.17500
O266        O  0.71399303  0.81023954  0.50337535    -0.50900
O267        O  0.69400044  0.77112128  0.54140556    -0.74100
O268        O  0.69209906  0.82621355  0.45551399    -0.80900
O269        O  0.72813264  0.73086686  0.43950033    -0.82600
O270        O  0.67238596  0.82899884  0.41403666    -0.78200
O271        O  0.72356977  0.77142203  0.46691287    -0.89900
O272        O  0.67964012  0.73706928  0.54507365    -0.75800
O273        O  0.67635450  0.77143830  0.45793447    -0.85300
O274        O  0.69798639  0.73489849  0.46367138    -0.85000
O275        O  0.69196793  0.79603645  0.37986111    -0.71800
O276        O  0.71130146  0.76214695  0.38860974    -0.83900
Zr277      Zr  0.67635666  0.72386139  0.31843401     2.26400
Zr278      Zr  0.66834957  0.78661216  0.38140390     2.06300
Zr279      Zr  0.70855198  0.71641918  0.39413622     2.10000
Zr280      Zr  0.67463375  0.72548658  0.46329695     1.78800
O281        O  0.72810457  0.70881767  0.34315771    -0.92700
O282        O  0.65306701  0.73567911  0.50062464    -0.40500
O283        O  0.68498317  0.70716649  0.39344909    -0.77200
O284        O  0.66553976  0.74085354  0.38953133    -0.95800
O285        O  0.67918880  0.76920451  0.31146057    -0.89200
O286        O  0.70004832  0.73142133  0.31841498    -0.92000
C287        C  0.68694114  0.75439256  0.56456948     1.01800
C288        C  0.73137794  0.75200706  0.46072299     1.14700
C289        C  0.68215577  0.83897561  0.43750675     1.05500
O290        O  0.64974264  0.79794572  0.43440497    -0.94100
O291        O  0.64799334  0.77266648  0.34200975    -0.89900
O292        O  0.65231275  0.73345680  0.30825197    -0.83000
C293        C  0.64442892  0.75215907  0.31975509     1.12100
O294        O  0.72101483  0.80779525  0.32627754    -0.96100
Zr295      Zr  0.70289820  0.77683324  0.31266440     1.88900
O296        O  0.68065200  0.73642628  0.23425867    -0.72800
O297        O  0.66252709  0.81795614  0.31932914    -0.52000
O298        O  0.69690242  0.81782844  0.27512558    -0.96700
O299        O  0.72353057  0.76276919  0.27260558    -0.53900
O300        O  0.69680537  0.76742207  0.23092082    -0.73300
C301        C  0.68833285  0.75222159  0.21132294     0.99100
O302        O  0.66431179  0.68881445  0.27835412    -0.62100
O303        O  0.71342839  0.68063874  0.44842993    -0.56900
O304        O  0.68462999  0.67977024  0.31198953    -0.93600
O305        O  0.70408169  0.67541081  0.35472804    -0.92000
O306        O  0.68265403  0.68612876  0.50165572    -0.92400
O307        O  0.65811311  0.69106198  0.45449421    -0.91200
C308        C  0.69470925  0.66667106  0.32740905     1.17900
H309        H  0.70228214  0.72872828  0.49271216     0.33800
H310        H  0.65623384  0.73588166  0.39267235     0.44700
H311        H  0.70423996  0.72240596  0.29192197     0.38200
H312        H  0.69380294  0.81402891  0.37403209     0.34700
H313        H  0.65294556  0.72561988  0.53100237     0.26500
H314        H  0.65588716  0.82956473  0.33477635     0.32400
H315        H  0.70107835  0.81737718  0.24271535     0.38300
H316        H  0.67755971  0.68503299  0.53228085     0.32800
H317        H  0.72252804  0.67473143  0.43895621     0.31700
H318        H  0.73135904  0.69147839  0.35259925     0.33400
H319        H  0.72499918  0.77547864  0.24646664     0.32300
H320        H  0.66072016  0.68208537  0.42438000     0.36300
H321        H  0.65662267  0.68449938  0.29964927     0.29100
H322        H  0.70796826  0.81891785  0.52673732     0.33300
H323        H  0.72294253  0.81565831  0.29448334     0.36100
H324        H  0.71469856  0.68858294  0.48056686     0.28700
H325        H  0.66020478  0.69656977  0.24925505     0.41600
H326        H  0.64512910  0.78136682  0.44091193     0.31700
H327        H  0.65392748  0.75384817  0.51122194     0.39300
H328        H  0.72119660  0.74664120  0.25539492     0.31100
H329        H  0.67070505  0.82868430  0.31543394     0.31200
H330        H  0.71683296  0.82396486  0.48066296     0.31500
Zr331      Zr  0.70000405  0.78136500  0.95657080     2.17500
O332        O  0.71471230  0.81099780  0.00043691    -0.50900
O333        O  0.69430656  0.77182654  0.04115179    -0.74100
O334        O  0.69232391  0.82679254  0.95495236    -0.80900
O335        O  0.72851384  0.73198225  0.93827062    -0.82600
O336        O  0.67253760  0.82936267  0.91382301    -0.78200
O337        O  0.72371826  0.77199813  0.96774610    -0.89900
O338        O  0.67977696  0.73803509  0.04521908    -0.75800
O339        O  0.67656442  0.77205239  0.95792048    -0.85300
O340        O  0.69824149  0.73550304  0.96352792    -0.85000
O341        O  0.69208003  0.79642958  0.87944977    -0.71800
O342        O  0.71142231  0.76274680  0.88802580    -0.83900
Zr343      Zr  0.67650222  0.72381702  0.81917058     2.26400
Zr344      Zr  0.66847114  0.78695611  0.88126071     2.06300
Zr345      Zr  0.70883582  0.71702836  0.89411414     2.10000
Zr346      Zr  0.67486018  0.72609629  0.96365460     1.78800
O347        O  0.72842179  0.70856016  0.84376896    -0.92700
O348        O  0.65332914  0.73713228  0.00036414    -0.40500
O349        O  0.68529685  0.70753163  0.89417891    -0.77200
O350        O  0.66572528  0.74125265  0.88994073    -0.95800
O351        O  0.67920469  0.76920393  0.81141899    -0.89200
O352        O  0.70017064  0.73171779  0.81835624    -0.92000
C353        C  0.68714414  0.75531747  0.06449964     1.01800
C354        C  0.73162858  0.75285402  0.96058167     1.14700
C355        C  0.68234898  0.83945509  0.93691147     1.05500
O356        O  0.64969499  0.79919714  0.93287101    -0.94100
O357        O  0.64807437  0.77283194  0.84217228    -0.89900
O358        O  0.65246224  0.73358282  0.80873703    -0.83000
C359        C  0.64454130  0.75225309  0.82005698     1.12100
O360        O  0.72100838  0.80840430  0.82404880    -0.96100
Zr361      Zr  0.70289157  0.77718523  0.81212893     1.88900
O362        O  0.68106577  0.73520724  0.73465373    -0.72800
O363        O  0.66310362  0.81764226  0.81761076    -0.52000
O364        O  0.69690044  0.81838707  0.77532793    -0.96700
O365        O  0.72374490  0.76344801  0.77331510    -0.53900
O366        O  0.69655060  0.76744378  0.73069591    -0.73300
C367        C  0.68840974  0.75145875  0.71141533     0.99100
O368        O  0.66384772  0.68901977  0.78087241    -0.62100
O369        O  0.71361133  0.68229195  0.95085572    -0.56900
O370        O  0.68471563  0.67949658  0.81464229    -0.93600
O371        O  0.70454480  0.67579997  0.85532191    -0.92000
O372        O  0.68208131  0.68681250  0.00433503    -0.92400
O373        O  0.65835755  0.69173052  0.95321911    -0.91200
C374        C  0.69496848  0.66664131  0.82943233     1.17900
H375        H  0.70256291  0.72937440  0.99255900     0.33800
H376        H  0.65641294  0.73632908  0.89317502     0.44700
H377        H  0.70433837  0.72265032  0.79185967     0.38200
H378        H  0.69390145  0.81440861  0.87348928     0.34700
H379        H  0.65296328  0.72679890  0.03039269     0.26500
H380        H  0.65599526  0.82877746  0.83150732     0.32400
H381        H  0.70071912  0.81776284  0.74236840     0.38300
H382        H  0.67565410  0.68464164  0.03133358     0.32800
H383        H  0.72128788  0.67285734  0.93646173     0.31700
H384        H  0.73382958  0.69598124  0.86239668     0.33400
H385        H  0.72492435  0.77543226  0.74583095     0.32300
H386        H  0.65849072  0.68787470  0.91823711     0.36300
H387        H  0.65647066  0.68468149  0.80353295     0.29100
H388        H  0.70893255  0.81985434  0.02433867     0.33300
H389        H  0.72268656  0.81639266  0.79217652     0.36100
H390        H  0.71743703  0.69082024  0.97971347     0.28700
H391        H  0.65935017  0.69681009  0.75255016     0.41600
H392        H  0.64502992  0.78276277  0.94015024     0.31700
H393        H  0.65441198  0.75515084  0.01158991     0.39300
H394        H  0.72171148  0.74666015  0.75793698     0.31100
H395        H  0.67111171  0.82895884  0.81537834     0.31200
H396        H  0.71733931  0.82455682  0.97704921     0.31500
Zr397      Zr  0.54897718  0.78157129  0.16211600     2.17500
O398        O  0.53417695  0.81139749  0.11918914    -0.50900
O399        O  0.55475821  0.77239979  0.07748875    -0.74100
O400        O  0.55648635  0.82708067  0.16457140    -0.80900
O401        O  0.52065052  0.73139877  0.17766217    -0.82600
O402        O  0.57626529  0.82965464  0.20570565    -0.78200
O403        O  0.52544333  0.77154656  0.14879066    -0.89900
O404        O  0.56911389  0.73835454  0.07358687    -0.75800
O405        O  0.57245575  0.77256733  0.16126413    -0.85300
O406        O  0.55082413  0.73572757  0.15495183    -0.85000
O407        O  0.55666152  0.79652504  0.23969476    -0.71800
O408        O  0.53734182  0.76270198  0.22995316    -0.83900
Zr409      Zr  0.57231778  0.72414272  0.29963122     2.26400
Zr410      Zr  0.58029541  0.78732095  0.23848485     2.06300
Zr411      Zr  0.54008312  0.71704398  0.22399700     2.10000
Zr412      Zr  0.57421325  0.72663811  0.15515873     1.78800
O413        O  0.52074107  0.71089242  0.27682257    -0.92700
O414        O  0.59589104  0.73845501  0.12042698    -0.40500
O415        O  0.56369443  0.70783458  0.22432731    -0.77200
O416        O  0.58324751  0.74164131  0.22915226    -0.95800
O417        O  0.56935526  0.76940650  0.30764304    -0.89200
O418        O  0.54861803  0.73160675  0.29996644    -0.92000
C419        C  0.56179692  0.75568114  0.05420276     1.01800
C420        C  0.51758733  0.75224553  0.15515123     1.14700
C421        C  0.56645075  0.83974713  0.18267534     1.05500
O422        O  0.59933643  0.80142867  0.18991317    -0.94100
O423        O  0.60064923  0.77320266  0.27775924    -0.89900
O424        O  0.59637415  0.73354346  0.30958535    -0.83000
C425        C  0.60423330  0.75244285  0.29912791     1.12100
O426        O  0.52766161  0.80816009  0.29217881    -0.96100
Zr427      Zr  0.54563717  0.77697031  0.30631153     1.88900
O428        O  0.56788814  0.73632191  0.38393180    -0.72800
O429        O  0.58526684  0.81734463  0.30372206    -0.52000
O430        O  0.55113479  0.81780703  0.34543700    -0.96700
O431        O  0.52483339  0.76216920  0.34426636    -0.53900
O432        O  0.55185712  0.76752366  0.38795462    -0.73300
C433        C  0.56032291  0.75217468  0.40720886     0.99100
O434        O  0.58453370  0.69000830  0.34165526    -0.62100
O435        O  0.53423626  0.68171128  0.16991714    -0.56900
O436        O  0.56428013  0.67976240  0.30357293    -0.93600
O437        O  0.54447446  0.67584043  0.26275143    -0.92000
O438        O  0.56733292  0.68696853  0.11509364    -0.92400
O439        O  0.59067649  0.69199785  0.16157132    -0.91200
C440        C  0.55402829  0.66685919  0.28897244     1.17900
H441        H  0.54657375  0.72961878  0.12579141     0.33800
H442        H  0.59256035  0.73678259  0.22575486     0.44700
H443        H  0.54446857  0.72241436  0.32635818     0.38200
H444        H  0.55481141  0.81448253  0.24581306     0.34700
H445        H  0.59656079  0.72813877  0.09044600     0.26500
H446        H  0.59297888  0.82765580  0.29184763     0.32400
H447        H  0.54618025  0.81756129  0.37641693     0.38300
H448        H  0.56082146  0.67889683  0.13750343     0.32800
H449        H  0.52491323  0.67697710  0.17890264     0.31700
H450        H  0.51458971  0.69947535  0.25854063     0.33400
H451        H  0.52310966  0.77467303  0.37054029     0.32300
H452        H  0.59049497  0.68697758  0.19601957     0.36300
H453        H  0.59214231  0.68523307  0.32033626     0.29100
H454        H  0.53991582  0.82054907  0.09553986     0.33300
H455        H  0.52498009  0.81465951  0.32433956     0.36100
H456        H  0.53339050  0.68968162  0.13761311     0.28700
H457        H  0.58874572  0.69835114  0.37000310     0.41600
H458        H  0.60343492  0.78526605  0.17781976     0.31700
H459        H  0.59470807  0.75641832  0.10905425     0.39300
H460        H  0.52716232  0.74600762  0.36135165     0.31100
H461        H  0.57760738  0.82956339  0.30398929     0.31200
H462        H  0.53149497  0.82469686  0.14300702     0.31500
Zr463      Zr  0.54912493  0.78146088  0.66181364     2.17500
O464        O  0.53480141  0.81147720  0.61725686    -0.50900
O465        O  0.55491749  0.77206275  0.57729762    -0.74100
O466        O  0.55696687  0.82686684  0.66394568    -0.80900
O467        O  0.52047712  0.73203901  0.67994422    -0.82600
O468        O  0.57633677  0.82977745  0.70745794    -0.78200
O469        O  0.52536843  0.77206297  0.65060664    -0.89900
O470        O  0.56922027  0.73794591  0.57353162    -0.75800
O471        O  0.57256489  0.77215002  0.66141571    -0.85300
O472        O  0.55089010  0.73558732  0.65441897    -0.85000
O473        O  0.55677622  0.79645255  0.73932780    -0.71800
O474        O  0.53751992  0.76254736  0.72973775    -0.83900
Zr475      Zr  0.57230226  0.72405214  0.80001731     2.26400
Zr476      Zr  0.58041102  0.78707640  0.73846748     2.06300
Zr477      Zr  0.54020404  0.71685026  0.72348070     2.10000
Zr478      Zr  0.57425051  0.72620063  0.65524157     1.78800
O479        O  0.52060388  0.70805973  0.77357885    -0.92700
O480        O  0.59586992  0.73671346  0.61860077    -0.40500
O481        O  0.56377524  0.70765961  0.72464300    -0.77200
O482        O  0.58319708  0.74135229  0.72936705    -0.95800
O483        O  0.56946834  0.76936194  0.80794839    -0.89200
O484        O  0.54859144  0.73163771  0.79955827    -0.92000
C485        C  0.56195725  0.75533061  0.55407423     1.01800
C486        C  0.51739903  0.75296753  0.65774487     1.14700
C487        C  0.56672341  0.83970388  0.68311884     1.05500
O488        O  0.59929335  0.80031460  0.68820217    -0.94100
O489        O  0.60089579  0.77274297  0.77630683    -0.89900
O490        O  0.59634350  0.73385062  0.81087287    -0.83000
C491        C  0.60434439  0.75231761  0.79901790     1.12100
O492        O  0.52719678  0.80711111  0.79285133    -0.96100
Zr493      Zr  0.54575321  0.77703722  0.80606818     1.88900
O494        O  0.56777353  0.73585107  0.88444948    -0.72800
O495        O  0.58588903  0.81669527  0.80382518    -0.52000
O496        O  0.55156524  0.81859610  0.84167354    -0.96700
O497        O  0.52524116  0.76398294  0.84806142    -0.53900
O498        O  0.55204844  0.76764893  0.88768672    -0.73300
C499        C  0.56029242  0.75201328  0.90735244     0.99100
O500        O  0.58493496  0.68897767  0.83746673    -0.62100
O501        O  0.53545752  0.68247049  0.66585656    -0.56900
O502        O  0.56381224  0.68008742  0.80644030    -0.93600
O503        O  0.54462881  0.67559170  0.76215597    -0.92000
O504        O  0.56663760  0.68622765  0.61777724    -0.92400
O505        O  0.59104699  0.69227071  0.66367292    -0.91200
C506        C  0.55384714  0.66692209  0.79023553     1.17900
H507        H  0.54663095  0.72948752  0.62525912     0.33800
H508        H  0.59248532  0.73634734  0.72627816     0.44700
H509        H  0.54433742  0.72254259  0.82587471     0.38200
H510        H  0.55487043  0.81440892  0.74527397     0.34700
H511        H  0.59543448  0.72944585  0.58560379     0.26500
H512        H  0.59270361  0.82853217  0.79003643     0.32400
H513        H  0.54691568  0.81885284  0.87325009     0.38300
H514        H  0.56979199  0.68720324  0.58395477     0.32800
H515        H  0.52790372  0.67269305  0.68030874     0.31700
H516        H  0.51651815  0.69237786  0.75935179     0.33400
H517        H  0.52467530  0.77557643  0.87639103     0.32300
H518        H  0.59050761  0.68706872  0.69798905     0.36300
H519        H  0.59242790  0.68503225  0.81506039     0.29100
H520        H  0.54072061  0.82009589  0.59346724     0.33300
H521        H  0.52507881  0.81465787  0.82476430     0.36100
H522        H  0.53146091  0.69114152  0.63745265     0.28700
H523        H  0.58926816  0.69651399  0.86636539     0.41600
H524        H  0.59543870  0.80264810  0.65556158     0.31700
H525        H  0.59564545  0.75564134  0.61380782     0.39300
H526        H  0.52718082  0.74681842  0.86207019     0.31100
H527        H  0.57774375  0.82748998  0.80778680     0.31200
H528        H  0.53222272  0.82516895  0.64043029     0.31500
Zr529      Zr  0.69968568  0.97554820  0.41229268     2.17500
O530        O  0.71381255  0.94622020  0.36539774    -0.50900
O531        O  0.69386206  0.98500645  0.32777601    -0.74100
O532        O  0.69193617  0.93013659  0.41510903    -0.80900
O533        O  0.72846097  0.02431255  0.43030393    -0.82600
O534        O  0.67239620  0.92762276  0.45774436    -0.78200
O535        O  0.72355914  0.98409855  0.40197153    -0.89900
O536        O  0.67967957  0.01930054  0.32369051    -0.75800
O537        O  0.67626051  0.98500811  0.41151314    -0.85300
O538        O  0.69801133  0.02142740  0.40500314    -0.85000
O539        O  0.69192697  0.96074849  0.48987035    -0.71800
O540        O  0.71128609  0.99435336  0.48028923    -0.83900
Zr541      Zr  0.67659587  0.03341420  0.55016369     2.26400
Zr542      Zr  0.66830454  0.97038560  0.48862146     2.06300
Zr543      Zr  0.70879522  0.04007532  0.47400285     2.10000
Zr544      Zr  0.67466674  0.03096458  0.40545656     1.78800
O545        O  0.72837432  0.04868012  0.52432911    -0.92700
O546        O  0.65295610  0.01881788  0.37140693    -0.40500
O547        O  0.68522202  0.04965266  0.47474886    -0.77200
O548        O  0.66560573  0.01616400  0.47963073    -0.95800
O549        O  0.67929091  0.98805278  0.55811237    -0.89200
O550        O  0.70027576  0.02553422  0.55013102    -0.92000
C551        C  0.68687647  0.00175596  0.30437378     1.01800
C552        C  0.73154842  0.00320998  0.40861377     1.14700
C553        C  0.68207937  0.91748413  0.43404691     1.05500
O554        O  0.64954643  0.95828192  0.43673811    -0.94100
O555        O  0.64803024  0.98460629  0.52824761    -0.89900
O556        O  0.65249841  0.02411966  0.56036542    -0.83000
C557        C  0.64454136  0.00537469  0.54977335     1.12100
O558        O  0.72100409  0.94873528  0.54528287    -0.96100
Zr559      Zr  0.70297561  0.98010126  0.55660156     1.88900
O560        O  0.68098840  0.02148686  0.63446465    -0.72800
O561        O  0.66206378  0.94013135  0.55202297    -0.52000
O562        O  0.69715631  0.93869363  0.59301665    -0.96700
O563        O  0.72412758  0.99348762  0.59391286    -0.53900
O564        O  0.69684569  0.98996602  0.63821559    -0.73300
C565        C  0.68849605  0.00550081  0.65760129     0.99100
O566        O  0.66431364  0.06781808  0.59124457    -0.62100
O567        O  0.71433819  0.07420888  0.41686187    -0.56900
O568        O  0.68503078  0.07748752  0.55551083    -0.93600
O569        O  0.70449313  0.08147127  0.51268255    -0.92000
O570        O  0.68173332  0.07051695  0.36538699    -0.92400
O571        O  0.65830510  0.06583695  0.41111310    -0.91200
C572        C  0.69515859  0.09043706  0.53998482     0.98700
H573        H  0.70227660  0.02742008  0.37576867     0.33800
H574        H  0.65631360  0.02119580  0.47642414     0.44700
H575        H  0.70449429  0.03463986  0.57648962     0.38200
H576        H  0.69378275  0.94281596  0.49614421     0.34700
H577        H  0.65227127  0.02879033  0.34103304     0.26500
H578        H  0.65525893  0.92869165  0.53703273     0.32400
H579        H  0.70069156  0.93952047  0.62636641     0.38300
H580        H  0.68662777  0.08035548  0.39047883     0.32800
H581        H  0.72325543  0.08060862  0.42741230     0.31700
H582        H  0.73316090  0.06290682  0.50776327     0.33400
H583        H  0.72461193  0.98363005  0.62445221     0.32300
H584        H  0.66022115  0.07417354  0.44251031     0.36300
H585        H  0.65685718  0.07271968  0.56934090     0.29100
H586        H  0.70770153  0.93736034  0.34256467     0.33300
H587        H  0.72321327  0.94210545  0.57782506     0.36100
H588        H  0.71614719  0.06531897  0.38593867     0.28700
H589        H  0.65989718  0.05962067  0.61934098     0.41600
H590        H  0.64428125  0.97434971  0.43256595     0.31700
H591        H  0.65411527  0.00072344  0.36073973     0.39300
H592        H  0.72280800  0.01157356  0.60430633     0.31100
H593        H  0.67008397  0.92903962  0.55639395     0.31200
H594        H  0.71679697  0.93261666  0.38812385     0.31500
Zr595      Zr  0.69965642  0.97614349  0.91190372     2.17500
O596        O  0.71420415  0.94686217  0.86673548    -0.50900
O597        O  0.69376255  0.98536928  0.82751490    -0.74100
O598        O  0.69208662  0.93065831  0.91406032    -0.80900
O599        O  0.72800385  0.02625426  0.92779400    -0.82600
O600        O  0.67235836  0.92795740  0.95550548    -0.78200
O601        O  0.72335596  0.98582203  0.90005141    -0.89900
O602        O  0.67952426  0.01959310  0.82389899    -0.75800
O603        O  0.67619296  0.98533932  0.91116408    -0.85300
O604        O  0.69778573  0.02196664  0.90476975    -0.85000
O605        O  0.69193692  0.96101552  0.98930355    -0.71800
O606        O  0.71128289  0.99491399  0.97980029    -0.83900
Zr607      Zr  0.67642745  0.03329740  0.05033457     2.26400
Zr608      Zr  0.66828477  0.97039898  0.98804987     2.06300
Zr609      Zr  0.70851554  0.04060062  0.97385454     2.10000
Zr610      Zr  0.67442134  0.03128675  0.90556781     1.78800
O611        O  0.72836385  0.04773345  0.02370266    -0.92700
O612        O  0.65278419  0.02038100  0.86954221    -0.40500
O613        O  0.68490075  0.04983743  0.97502620    -0.77200
O614        O  0.66542642  0.01612929  0.97970077    -0.95800
O615        O  0.67930664  0.98798753  0.05750923    -0.89200
O616        O  0.70011094  0.02579374  0.04995663    -0.92000
C617        C  0.68676736  0.00219277  0.80438291     1.01800
C618        C  0.73117902  0.00524272  0.90602564     1.14700
C619        C  0.68215922  0.91792583  0.93227278     1.05500
O620        O  0.64937770  0.95996455  0.93566687    -0.94100
O621        O  0.64817570  0.98382492  0.02963923    -0.89900
O622        O  0.65241113  0.02367356  0.06075088    -0.83000
C623        C  0.64458130  0.00465766  0.05070930     1.12100
O624        O  0.72123775  0.94953295  0.04371290    -0.96100
Zr625      Zr  0.70300835  0.98037998  0.05600656     1.88900
O626        O  0.68079762  0.02066254  0.13442470    -0.72800
O627        O  0.66175662  0.93944275  0.04987224    -0.52000
O628        O  0.69717486  0.93904577  0.09260713    -0.96700
O629        O  0.72388889  0.99451570  0.09435809    -0.53900
O630        O  0.69678376  0.98936663  0.13781972    -0.73300
C631        C  0.68835287  0.00466523  0.15739720     0.99100
O632        O  0.66437896  0.06797415  0.09143746    -0.62100
O633        O  0.71337634  0.07582013  0.91821983    -0.56900
O634        O  0.68473635  0.07749736  0.05560148    -0.93600
O635        O  0.70431108  0.08165596  0.01347430    -0.92000
O636        O  0.68223897  0.07142818  0.86932932    -0.92400
O637        O  0.65743483  0.06509333  0.91013106    -0.91200
C638        C  0.69488324  0.09051886  0.04040782     1.17900
H639        H  0.70203093  0.02811744  0.87562125     0.33800
H640        H  0.65609423  0.02093677  0.97675270     0.44700
H641        H  0.70428924  0.03494376  0.07632530     0.38200
H642        H  0.69378882  0.94303650  0.99532059     0.34700
H643        H  0.65269560  0.02949672  0.83814193     0.26500
H644        H  0.65605421  0.92664059  0.03295303     0.32400
H645        H  0.70193029  0.93880771  0.12398546     0.38300
H646        H  0.67825716  0.07161338  0.83659169     0.32800
H647        H  0.72168684  0.08385613  0.93099989     0.31700
H648        H  0.73395787  0.06002006  0.00509255     0.33400
H649        H  0.72449098  0.98428061  0.12442899     0.32300
H650        H  0.65767439  0.07091637  0.94413017     0.36300
H651        H  0.65665701  0.07238824  0.07036737     0.29100
H652        H  0.70831478  0.93816453  0.84296005     0.33300
H653        H  0.72387318  0.94350964  0.07625557     0.36100
H654        H  0.71622738  0.06742361  0.88782494     0.28700
H655        H  0.66031964  0.05998439  0.12040619     0.41600
H656        H  0.64421018  0.97624347  0.93305314     0.31700
H657        H  0.65355311  0.00191174  0.86087546     0.39300
H658        H  0.72228824  0.01236521  0.10562817     0.31100
H659        H  0.67014211  0.93001358  0.05767481     0.31200
H660        H  0.71690590  0.93315772  0.88970150     0.31500
Zr661      Zr  0.54890125  0.97635751  0.20583003     2.17500
O662        O  0.53425609  0.94655151  0.24935912    -0.50900
O663        O  0.55474126  0.98561460  0.29030092    -0.74100
O664        O  0.55672604  0.93102539  0.20486242    -0.80900
O665        O  0.52028442  0.02576246  0.18690088    -0.82600
O666        O  0.57620033  0.92817384  0.16200883    -0.78200
O667        O  0.52518867  0.98596817  0.21724081    -0.89900
O668        O  0.56913824  0.01959957  0.29473131    -0.75800
O669        O  0.57230292  0.98585685  0.20723261    -0.85300
O670        O  0.55058120  0.02220167  0.21283313    -0.85000
O671        O  0.55674943  0.96105993  0.12873989    -0.71800
O672        O  0.53745639  0.99494259  0.13736734    -0.83900
Zr673      Zr  0.57237349  0.03365628  0.06820432     2.26400
Zr674      Zr  0.58034834  0.97076353  0.13064523     2.06300
Zr675      Zr  0.54001588  0.04063748  0.14319482     2.10000
Zr676      Zr  0.57391443  0.03181736  0.21300228     1.78800
O677        O  0.52067642  0.04791661  0.09088705    -0.92700
O678        O  0.59573468  0.02112989  0.24778069    -0.40500
O679        O  0.56357626  0.05011213  0.14309657    -0.77200
O680        O  0.58312769  0.01654394  0.13934257    -0.95800
O681        O  0.56959972  0.98829668  0.06068553    -0.89200
O682        O  0.54867417  0.02584944  0.06748192    -0.92000
C683        C  0.56183687  0.00213329  0.31383849     1.01800
C684        C  0.51721839  0.00498243  0.20957004     1.14700
C685        C  0.56654804  0.91822966  0.18612326     1.05500
O686        O  0.59879824  0.95832878  0.18353973    -0.94100
O687        O  0.60070454  0.98452487  0.09143173    -0.89900
O688        O  0.59649998  0.02409174  0.05901585    -0.83000
C689        C  0.60433406  0.00519334  0.06993733     1.12100
O690        O  0.52775245  0.94946221  0.07440768    -0.96100
Zr691      Zr  0.54593047  0.98038536  0.06148246     1.88900
O692        O  0.56817452  0.02142378  0.98384050    -0.72800
O693        O  0.58678968  0.94074452  0.06708769    -0.52000
O694        O  0.55227108  0.93943203  0.02463524    -0.96700
O695        O  0.52510460  0.99283794  0.02095436    -0.53900
O696        O  0.55219707  0.99010393  0.97995561    -0.73300
C697        C  0.56063436  0.00549506  0.96064139     0.99100
O698        O  0.58452651  0.06833264  0.02749657    -0.62100
O699        O  0.53429859  0.07546643  0.19865337    -0.56900
O700        O  0.56405170  0.07786424  0.06318306    -0.93600
O701        O  0.54454955  0.08203888  0.10567259    -0.92000
O702        O  0.56586230  0.07110951  0.25162664    -0.92400
O703        O  0.58995182  0.06724656  0.20655264    -0.91200
C704        C  0.55395463  0.09090788  0.07870258     1.17900
H705        H  0.54625755  0.02820287  0.24194717     0.33800
H706        H  0.59243761  0.02146080  0.14276950     0.44700
H707        H  0.54450511  0.03483717  0.04090583     0.38200
H708        H  0.55488636  0.94309155  0.12290954     0.34700
H709        H  0.59623214  0.03135765  0.27791194     0.26500
H710        H  0.59396050  0.92996986  0.08157602     0.32400
H711        H  0.54776320  0.93935261  0.99278491     0.38300
H712        H  0.57074630  0.07192404  0.28272292     0.32800
H713        H  0.52474063  0.07940021  0.19172400     0.31700
H714        H  0.51922400  0.06681878  0.09133355     0.33400
H715        H  0.52488705  0.98232759  0.99113319     0.32300
H716        H  0.59056472  0.07081790  0.17153729     0.36300
H717        H  0.59188490  0.07336798  0.04973101     0.29100
H718        H  0.54001470  0.93801367  0.27373679     0.33300
H719        H  0.52598831  0.94144489  0.04261893     0.36100
H720        H  0.53417758  0.06751837  0.23110493     0.28700
H721        H  0.58909107  0.06017772  0.99968439     0.41600
H722        H  0.60363685  0.97463830  0.19030056     0.31700
H723        H  0.59480230  0.00306505  0.25888633     0.39300
H724        H  0.52655143  0.01069154  0.00940210     0.31100
H725        H  0.57900571  0.92895508  0.06364555     0.31200
H726        H  0.53184878  0.93279803  0.22606576     0.31500
Zr727      Zr  0.54894717  0.97639245  0.70651296     2.17500
O728        O  0.53457606  0.94711474  0.75256660    -0.50900
O729        O  0.55505041  0.98571740  0.79072241    -0.74100
O730        O  0.55648664  0.93087707  0.70441353    -0.80900
O731        O  0.52032094  0.02577994  0.68770089    -0.82600
O732        O  0.57626225  0.92825903  0.66325063    -0.78200
O733        O  0.52522628  0.98594304  0.71774572    -0.89900
O734        O  0.56923693  0.02005595  0.79428814    -0.75800
O735        O  0.57238908  0.98575195  0.70715235    -0.85300
O736        O  0.55078495  0.02226488  0.71335831    -0.85000
O737        O  0.55667820  0.96109914  0.62930287    -0.71800
O738        O  0.53734153  0.99492467  0.63826589    -0.83900
Zr739      Zr  0.57214689  0.03332224  0.56763702     2.26400
Zr740      Zr  0.58031646  0.97062209  0.63048384     2.06300
Zr741      Zr  0.54005949  0.04068879  0.64408149     2.10000
Zr742      Zr  0.57413746  0.03170611  0.71249195     1.78800
O743        O  0.52033400  0.05014809  0.59510387    -0.92700
O744        O  0.59565959  0.02022894  0.74890325    -0.40500
O745        O  0.56363770  0.05002340  0.64284180    -0.77200
O746        O  0.58308229  0.01641111  0.63861474    -0.95800
O747        O  0.56936119  0.98794789  0.56064281    -0.89200
O748        O  0.54841048  0.02564963  0.56788740    -0.92000
C749        C  0.56208966  0.00250677  0.81382057     1.01800
C750        C  0.51725673  0.00496812  0.71024546     1.14700
C751        C  0.56646508  0.91819315  0.68644355     1.05500
O752        O  0.59897750  0.95771467  0.68198945    -0.94100
O753        O  0.60084182  0.98496529  0.59272243    -0.89900
O754        O  0.59628744  0.02380178  0.55795308    -0.83000
C755        C  0.60430644  0.00539410  0.57002515     1.12100
O756        O  0.52841303  0.94708401  0.57312316    -0.96100
Zr757      Zr  0.54566137  0.98013783  0.56222469     1.88900
O758        O  0.56776152  0.02058059  0.48366000    -0.72800
O759        O  0.58637494  0.94042013  0.56679770    -0.52000
O760        O  0.55227824  0.93935488  0.52529272    -0.96700
O761        O  0.52416080  0.99258088  0.52629844    -0.53900
O762        O  0.55153122  0.98974268  0.48021925    -0.73300
C763        C  0.56007906  0.00482396  0.46066958     0.99100
O764        O  0.58452280  0.06722862  0.52550543    -0.62100
O765        O  0.53481243  0.07494895  0.70146071    -0.56900
O766        O  0.56375281  0.07752342  0.56208702    -0.93600
O767        O  0.54452270  0.08204360  0.60602810    -0.92000
O768        O  0.56666238  0.07184752  0.74948405    -0.92400
O769        O  0.59084514  0.06591602  0.70500753    -0.91200
C770        C  0.55378505  0.09074687  0.57819815     1.17900
H771        H  0.54655826  0.02839518  0.74256434     0.33800
H772        H  0.59235571  0.02154185  0.64194692     0.44700
H773        H  0.54414596  0.03455452  0.54139593     0.38200
H774        H  0.55483490  0.94313766  0.62335372     0.34700
H775        H  0.59639947  0.03139341  0.77779069     0.26500
H776        H  0.59365243  0.92975459  0.58087896     0.32400
H777        H  0.54738511  0.93868918  0.49421109     0.38300
H778        H  0.57147868  0.07264869  0.78071453     0.32800
H779        H  0.52609250  0.08204273  0.69034969     0.31700
H780        H  0.51678122  0.06655471  0.60825894     0.33400
H781        H  0.52516692  0.98935601  0.49129623     0.32300
H782        H  0.58838658  0.07506851  0.67491746     0.36300
H783        H  0.59187272  0.07248704  0.54759885     0.29100
H784        H  0.54057324  0.93810983  0.77558295     0.33300
H785        H  0.52526331  0.94252097  0.54032662     0.36100
H786        H  0.53264029  0.06610367  0.73212668     0.28700
H787        H  0.58908486  0.05868257  0.49809030     0.41600
H788        H  0.60307326  0.97416401  0.69270340     0.31700
H789        H  0.59429418  0.00267493  0.76210959     0.39300
H790        H  0.52366047  0.01158222  0.52917104     0.31100
H791        H  0.57858933  0.92856818  0.56427152     0.31200
H792        H  0.53160069  0.93362716  0.72957559     0.31500
Zr793      Zr  0.69966979  0.28133490  0.20535996     2.17500
O794        O  0.71429932  0.31081238  0.24983225    -0.50900
O795        O  0.69358331  0.27239278  0.28977021    -0.74100
O796        O  0.69203877  0.32684543  0.20273334    -0.80900
O797        O  0.72830797  0.23203653  0.18732897    -0.82600
O798        O  0.67241011  0.32943163  0.16067588    -0.78200
O799        O  0.72334484  0.27186554  0.21740503    -0.89900
O800        O  0.68013156  0.23701091  0.29385129    -0.75800
O801        O  0.67626934  0.27183374  0.20633933    -0.85300
O802        O  0.69802362  0.23543631  0.21253718    -0.85000
O803        O  0.69195749  0.29627704  0.12787929    -0.71800
O804        O  0.71123173  0.26252181  0.13730953    -0.83900
Zr805      Zr  0.67635019  0.22382005  0.06734118     2.26400
Zr806      Zr  0.66837034  0.28675270  0.12943027     2.06300
Zr807      Zr  0.70862294  0.21683919  0.14319718     2.10000
Zr808      Zr  0.67467970  0.22585360  0.21223627     1.78800
O809        O  0.72830297  0.20900467  0.09296087    -0.92700
O810        O  0.65326513  0.23736588  0.24927148    -0.40500
O811        O  0.68504183  0.20745116  0.14248408    -0.77200
O812        O  0.66558407  0.24099576  0.13830112    -0.95800
O813        O  0.67923147  0.26911404  0.05983224    -0.89200
O814        O  0.70006647  0.23144628  0.06718601    -0.92000
C815        C  0.68696990  0.25508113  0.31313647     1.01800
C816        C  0.73134831  0.25289350  0.20991327     1.14700
C817        C  0.68214929  0.33954756  0.18412123     1.05500
O818        O  0.64963563  0.29902032  0.18108288    -0.94100
O819        O  0.64792491  0.27300149  0.09088691    -0.89900
O820        O  0.65226022  0.23372435  0.05753944    -0.83000
C821        C  0.64435762  0.25243225  0.06893837     1.12100
O822        O  0.72045582  0.30907516  0.07493050    -0.96100
Zr823      Zr  0.70293782  0.27685446  0.06106706     1.88900
O824        O  0.68076119  0.23594737  0.98297989    -0.72800
O825        O  0.66278590  0.31669772  0.06475041    -0.52000
O826        O  0.69714820  0.31750922  0.02200484    -0.96700
O827        O  0.72404761  0.26299947  0.02407946    -0.53900
O828        O  0.69689041  0.26701677  0.97934044    -0.73300
C829        C  0.68840734  0.25175208  0.95988613     0.99100
O830        O  0.66371740  0.18932496  0.02794506    -0.62100
O831        O  0.71340873  0.18172823  0.19910429    -0.56900
O832        O  0.68471793  0.17965122  0.06230858    -0.93600
O833        O  0.70430619  0.17563140  0.10442920    -0.92000
O834        O  0.68218001  0.18570286  0.24905473    -0.92400
O835        O  0.65787458  0.19169241  0.20675014    -0.91200
C836        C  0.69486390  0.16667978  0.07766539     1.17900
H837        H  0.70235269  0.22936647  0.24159506     0.33800
H838        H  0.65627972  0.23603388  0.14157319     0.44700
H839        H  0.70426822  0.22236861  0.04077639     0.38200
H840        H  0.69380359  0.31420622  0.12163671     0.34700
H841        H  0.65254213  0.22605775  0.27796117     0.26500
H842        H  0.65543987  0.32749602  0.07797363     0.32400
H843        H  0.70211502  0.31737963  0.99104874     0.38300
H844        H  0.67711597  0.18457492  0.27974363     0.32800
H845        H  0.72158595  0.17335706  0.18600855     0.31700
H846        H  0.73263999  0.19361720  0.10733057     0.33400
H847        H  0.72545904  0.27501263  0.99677842     0.32300
H848        H  0.66002544  0.18252257  0.17638430     0.36300
H849        H  0.65625451  0.18494161  0.05021044     0.29100
H850        H  0.70842951  0.31990945  0.27312784     0.33300
H851        H  0.72313548  0.31550452  0.04271381     0.36100
H852        H  0.71647465  0.19020440  0.22914949     0.28700
H853        H  0.65932609  0.19733611  0.99962319     0.41600
H854        H  0.64518774  0.28249911  0.18936117     0.31700
H855        H  0.65471246  0.25483608  0.26276159     0.39300
H856        H  0.72208500  0.24625356  0.00841951     0.31100
H857        H  0.67061581  0.32847092  0.06262856     0.31200
H858        H  0.71711971  0.32419634  0.22638637     0.31500
Zr859      Zr  0.69956050  0.28172829  0.70529509     2.17500
O860        O  0.71367248  0.31156678  0.75119764    -0.50900
O861        O  0.69384078  0.27209948  0.78984147    -0.74100
O862        O  0.69187707  0.32709143  0.70250960    -0.80900
O863        O  0.72807573  0.23214212  0.68910162    -0.82600
O864        O  0.67224405  0.32959478  0.66042840    -0.78200
O865        O  0.72331291  0.27252166  0.71690589    -0.89900
O866        O  0.67930978  0.23831978  0.79359715    -0.75800
O867        O  0.67609219  0.27258278  0.70528507    -0.85300
O868        O  0.69766904  0.23595435  0.71286936    -0.85000
O869        O  0.69196406  0.29658075  0.62747625    -0.71800
O870        O  0.71124123  0.26272594  0.63765244    -0.83900
Zr871      Zr  0.67654857  0.22371043  0.56717640     2.26400
Zr872      Zr  0.66835605  0.28711565  0.62781471     2.06300
Zr873      Zr  0.70850365  0.21703992  0.64435275     2.10000
Zr874      Zr  0.67430438  0.22668752  0.71187336     1.78800
O875        O  0.72814377  0.20884366  0.59418814    -0.92700
O876        O  0.65272757  0.23896703  0.74690038    -0.40500
O877        O  0.68492323  0.20774450  0.64304513    -0.77200
O878        O  0.66548862  0.24140155  0.63728641    -0.95800
O879        O  0.67936056  0.26903070  0.55896842    -0.89200
O880        O  0.70022506  0.23150938  0.56790835    -0.92000
C881        C  0.68672467  0.25547078  0.81306075     1.01800
C882        C  0.73120961  0.25324246  0.71066536     1.14700
C883        C  0.68197204  0.33971866  0.68394629     1.05500
O884        O  0.64902593  0.30009293  0.67597823    -0.94100
O885        O  0.64814977  0.27285788  0.58778544    -0.89900
O886        O  0.65248266  0.23309440  0.55638717    -0.83000
C887        C  0.64458941  0.25198174  0.56673747     1.12100
O888        O  0.72112529  0.30788333  0.57546890    -0.96100
Zr889      Zr  0.70303013  0.27694816  0.56105346     1.88900
O890        O  0.68128317  0.23561847  0.48293418    -0.72800
O891        O  0.66368763  0.31725701  0.56247967    -0.52000
O892        O  0.69773427  0.31836250  0.52382715    -0.96700
O893        O  0.72325516  0.26192151  0.51951640    -0.53900
O894        O  0.69630468  0.26865697  0.47952089    -0.73300
C895        C  0.68838189  0.25237840  0.45996351     0.99100
O896        O  0.66448845  0.18885015  0.52656239    -0.62100
O897        O  0.71342985  0.18250573  0.70141482    -0.56900
O898        O  0.68488730  0.17944385  0.56297748    -0.93600
O899        O  0.70430556  0.17556031  0.60608691    -0.92000
O900        O  0.68158886  0.18702506  0.75105002    -0.92400
O901        O  0.65786411  0.19197487  0.70542166    -0.91200
C902        C  0.69499305  0.16651223  0.57880733     1.17900
H903        H  0.70187844  0.22991177  0.74218445     0.33800
H904        H  0.65617317  0.23652810  0.64037837     0.44700
H905        H  0.70450941  0.22231284  0.54182935     0.38200
H906        H  0.69382022  0.31452278  0.62133436     0.34700
H907        H  0.65158840  0.22741751  0.77507890     0.26500
H908        H  0.65642217  0.32849439  0.57497872     0.32400
H909        H  0.70290232  0.31863154  0.49329890     0.38300
H910        H  0.67673591  0.18672827  0.78223756     0.32800
H911        H  0.72210621  0.17521592  0.69034432     0.31700
H912        H  0.73318593  0.19522185  0.61151901     0.33400
H913        H  0.72514637  0.27526531  0.49487656     0.32300
H914        H  0.65707677  0.18867203  0.67036279     0.36300
H915        H  0.65688690  0.18425745  0.54805779     0.29100
H916        H  0.70763715  0.32007311  0.77473342     0.33300
H917        H  0.72405617  0.31400443  0.54332724     0.36100
H918        H  0.71562458  0.19125302  0.73216543     0.28700
H919        H  0.66025986  0.19676279  0.49782905     0.41600
H920        H  0.64566728  0.28383199  0.69035255     0.31700
H921        H  0.65429432  0.25621018  0.76120891     0.39300
H922        H  0.72044087  0.24670541  0.50042262     0.31100
H923        H  0.67170384  0.32858702  0.56103088     0.31200
H924        H  0.71637250  0.32537748  0.72844111     0.31500
Zr925      Zr  0.54889858  0.28168784  0.41250215     2.17500
O926        O  0.53406337  0.31147030  0.36962530    -0.50900
O927        O  0.55447261  0.27252857  0.32784803    -0.74100
O928        O  0.55675252  0.32699781  0.41360394    -0.80900
O929        O  0.52036715  0.23225913  0.43007777    -0.82600
O930        O  0.57622616  0.32972686  0.45656034    -0.78200
O931        O  0.52518104  0.27230247  0.40070713    -0.89900
O932        O  0.56930580  0.23926486  0.32371348    -0.75800
O933        O  0.57236629  0.27238371  0.41128366    -0.85300
O934        O  0.55065412  0.23584286  0.40515070    -0.85000
O935        O  0.55680201  0.29673978  0.48970143    -0.71800
O936        O  0.53736293  0.26287423  0.48057779    -0.83900
Zr937      Zr  0.57222688  0.22413220  0.55006327     2.26400
Zr938      Zr  0.58041607  0.28714363  0.48818876     2.06300
Zr939      Zr  0.54002322  0.21715696  0.47436206     2.10000
Zr940      Zr  0.57399791  0.22645148  0.40519354     1.78800
O941        O  0.52086396  0.20907706  0.52696892    -0.92700
O942        O  0.59592071  0.23641715  0.37039024    -0.40500
O943        O  0.56359354  0.20779174  0.47474435    -0.77200
O944        O  0.58309905  0.24138242  0.47923016    -0.95800
O945        O  0.56948782  0.26949682  0.55771087    -0.89200
O946        O  0.54855078  0.23195628  0.55030254    -0.92000
C947        C  0.56177132  0.25629866  0.30445618     1.01800
C948        C  0.51725519  0.25314697  0.40777504     1.14700
C949        C  0.56659871  0.33973322  0.43237295     1.05500
O950        O  0.59920455  0.29971841  0.43695876    -0.94100
O951        O  0.60075682  0.27284489  0.52721813    -0.89900
O952        O  0.59633456  0.23349448  0.56012844    -0.83000
C953        C  0.60428502  0.25214978  0.54889001     1.12100
O954        O  0.52859508  0.31018426  0.54265625    -0.96100
Zr955      Zr  0.54580968  0.27740895  0.55651203     1.88900
O956        O  0.56784951  0.23639506  0.63429795    -0.72800
O957        O  0.58690477  0.31701166  0.55199282    -0.52000
O958        O  0.55183153  0.31791567  0.59557442    -0.96700
O959        O  0.52459118  0.26432056  0.59350985    -0.53900
O960        O  0.55173587  0.26744467  0.63830637    -0.73300
C961        C  0.56020710  0.25209829  0.65757907     0.99100
O962        O  0.58447801  0.18940952  0.59031247    -0.62100
O963        O  0.53429021  0.18268670  0.41808607    -0.56900
O964        O  0.56376976  0.18003677  0.55612764    -0.93600
O965        O  0.54466191  0.17555255  0.51147337    -0.92000
O966        O  0.56590774  0.18767150  0.36491484    -0.92400
O967        O  0.59010914  0.19123496  0.41223724    -0.91200
C968        C  0.55385081  0.16682259  0.53961517     1.17900
H969        H  0.54637143  0.22981817  0.37597541     0.33800
H970        H  0.59238861  0.23633801  0.47596076     0.44700
H971        H  0.54435448  0.22292434  0.57679455     0.38200
H972        H  0.55496763  0.31472185  0.49561892     0.34700
H973        H  0.59635073  0.22608665  0.34036025     0.26500
H974        H  0.59181825  0.33108856  0.53544912     0.32400
H975        H  0.54641387  0.31835921  0.62553039     0.38300
H976        H  0.57012591  0.18806722  0.33256949     0.32800
H977        H  0.52528942  0.17667442  0.42852737     0.31700
H978        H  0.51824427  0.19099504  0.52022382     0.33400
H979        H  0.52389375  0.27490965  0.62312606     0.32300
H980        H  0.58899049  0.18485119  0.44565928     0.36300
H981        H  0.59224376  0.18527850  0.56925336     0.29100
H982        H  0.53974345  0.32023585  0.34529443     0.33300
H983        H  0.52527318  0.31531341  0.57491678     0.36100
H984        H  0.53265609  0.19132151  0.38678578     0.28700
H985        H  0.58845989  0.19724644  0.61957154     0.41600
H986        H  0.60429222  0.28355386  0.43146916     0.31700
H987        H  0.59515442  0.25448018  0.35912180     0.39300
H988        H  0.52605747  0.24657110  0.60556505     0.31100
H989        H  0.57836224  0.32499993  0.56266925     0.31200
H990        H  0.53161728  0.32507308  0.39316711     0.31500
Zr991      Zr  0.54885360  0.28116388  0.91195072     2.17500
O992        O  0.53441190  0.31076422  0.86696270    -0.50900
O993        O  0.55468578  0.27145265  0.82764242    -0.74100
O994        O  0.55651672  0.32662258  0.91343486    -0.80900
O995        O  0.52015719  0.23204809  0.93203523    -0.82600
O996        O  0.57607160  0.32960136  0.95585812    -0.78200
O997        O  0.52518840  0.27158476  0.90077085    -0.89900
O998        O  0.56895991  0.23728140  0.82398658    -0.75800
O999        O  0.57226203  0.27189261  0.91136067    -0.85300
O1000       O  0.55061757  0.23531057  0.90542811    -0.85000
O1001       O  0.55655856  0.29662402  0.98903442    -0.71800
O1002       O  0.53731158  0.26256379  0.98025505    -0.83900
Zr1003     Zr  0.57210172  0.22432916  0.05072445     2.26400
Zr1004     Zr  0.58016642  0.28713496  0.98804659     2.06300
Zr1005     Zr  0.53998631  0.21685707  0.97485071     2.10000
Zr1006     Zr  0.57396636  0.22597476  0.90587863     1.78800
O1007       O  0.52050872  0.20801812  0.02555252    -0.92700
O1008       O  0.59543390  0.23794847  0.86963630    -0.40500
O1009       O  0.56357131  0.20756353  0.97566292    -0.77200
O1010       O  0.58297342  0.24132776  0.97975905    -0.95800
O1011       O  0.56926610  0.26967344  0.05770644    -0.89200
O1012       O  0.54839211  0.23204565  0.05064989    -0.92000
C1013       C  0.56170795  0.25467305  0.80448309     1.01800
C1014       C  0.51715580  0.25275789  0.90901674     1.14700
C1015       C  0.56635230  0.33949598  0.93197192     1.05500
O1016       O  0.59876862  0.30104261  0.93709273    -0.94100
O1017       O  0.60066349  0.27321115  0.02626336    -0.89900
O1018       O  0.59612903  0.23442953  0.06131649    -0.83000
C1019       C  0.60412089  0.25286687  0.04919510     1.12100
O1020       O  0.52725907  0.30783743  0.04145037    -0.96100
Zr1021     Zr  0.54559745  0.27752745  0.05610687     1.88900
O1022       O  0.56755066  0.23648954  0.13490718    -0.72800
O1023       O  0.58540988  0.31646329  0.05407704    -0.52000
O1024       O  0.55145239  0.31932345  0.09073336    -0.96700
O1025       O  0.52487134  0.26501732  0.09723317    -0.53900
O1026       O  0.55209415  0.26879680  0.13780985    -0.73300
C1027       C  0.56023578  0.25299995  0.15761870     0.99100
O1028       O  0.58478395  0.18975649  0.08958756    -0.62100
O1029       O  0.53487195  0.18269233  0.91720700    -0.56900
O1030       O  0.56375810  0.18017383  0.05682299    -0.93600
O1031       O  0.54447132  0.17559144  0.01318579    -0.92000
O1032       O  0.56592714  0.18637192  0.86825267    -0.92400
O1033       O  0.59087958  0.19215722  0.91254734    -0.91200
C1034       C  0.55378170  0.16693643  0.04084994     1.17900
H1035       H  0.54634183  0.22911770  0.87638068     0.33800
H1036       H  0.59226524  0.23629714  0.97673900     0.44700
H1037       H  0.54414724  0.22313711  0.07719917     0.38200
H1038       H  0.55466338  0.31458210  0.99481072     0.34700
H1039       H  0.59566703  0.22875093  0.83833373     0.26500
H1040       H  0.59270809  0.32759690  0.04148520     0.32400
H1041       H  0.54705167  0.31961112  0.12276118     0.38300
H1042       H  0.57129116  0.18467372  0.83832641     0.32800
H1043       H  0.52678429  0.17406475  0.93045110     0.31700
H1044       H  0.51708741  0.19113202  0.01417382     0.33400
H1045       H  0.52424705  0.27678119  0.12529045     0.32300
H1046       H  0.58857732  0.18297759  0.94276454     0.36300
H1047       H  0.59208723  0.18520937  0.06677028     0.29100
H1048       H  0.54031925  0.31960900  0.84343771     0.33300
H1049       H  0.52556667  0.31660560  0.07258379     0.36100
H1050       H  0.53160682  0.19161450  0.88788713     0.28700
H1051       H  0.58938006  0.19773336  0.11753093     0.41600
H1052       H  0.60371507  0.28499443  0.92927347     0.31700
H1053       H  0.59441534  0.25635438  0.86079275     0.39300
H1054       H  0.52669916  0.24789905  0.11163570     0.31100
H1055       H  0.57750090  0.32801327  0.05637649     0.31200
H1056       H  0.53165725  0.32433763  0.89012785     0.31500
Zr1057     Zr  0.92671198  0.47372565  0.42332879     2.17500
O1058       O  0.91190841  0.44388884  0.46626328    -0.50900
O1059       O  0.93164085  0.48550398  0.50733146    -0.74100
O1060       O  0.93595938  0.43018476  0.43237882    -0.80900
O1061       O  0.89738788  0.51956255  0.39454580    -0.82600
O1062       O  0.95535662  0.42615551  0.38943370    -0.78200
O1063       O  0.90246801  0.48087469  0.42901461    -0.89900
O1064       O  0.94695295  0.51804497  0.51015764    -0.75800
O1065       O  0.95029498  0.48187686  0.42212639    -0.85300
O1066       O  0.92892670  0.51944906  0.42933560    -0.85000
O1067       O  0.93455622  0.45681275  0.34714914    -0.71800
O1068       O  0.91541196  0.49137986  0.35424484    -0.83900
Zr1069     Zr  0.94946444  0.53023467  0.28389796     2.26400
Zr1070     Zr  0.95822201  0.46638522  0.34563151     2.06300
Zr1071     Zr  0.91784984  0.53703808  0.35991707     2.10000
Zr1072     Zr  0.95259435  0.52748880  0.42757056     1.78800
O1073       O  0.90037260  0.54988843  0.30311244    -0.92700
O1074       O  0.97351140  0.51272364  0.46432782    -0.40500
O1075       O  0.94140564  0.54578369  0.35969795    -0.77200
O1076       O  0.96129231  0.51223194  0.35230752    -0.95800
O1077       O  0.94709839  0.48463355  0.27714275    -0.89200
O1078       O  0.92590646  0.52174480  0.28368337    -0.92000
C1079       C  0.93904333  0.50181149  0.53010931     1.01800
C1080       C  0.89420892  0.49883253  0.41704833     1.14700
C1081       C  0.94621153  0.41735022  0.41758339     1.05500
O1082       O  0.97877018  0.45900150  0.39155417    -0.94100
O1083       O  0.97675550  0.47783998  0.29230335    -0.89900
O1084       O  0.97240226  0.51821048  0.26393191    -0.83000
C1085       C  0.97985266  0.49820621  0.26838605     1.12100
O1086       O  0.90536595  0.44502216  0.29083793    -0.96100
Zr1087     Zr  0.92363611  0.47586255  0.27885470     1.88900
O1088       O  0.94330999  0.52085105  0.20000938    -0.72800
O1089       O  0.96201522  0.43099833  0.28930815    -0.52000
O1090       O  0.93020422  0.43454334  0.24394071    -0.96700
O1091       O  0.90292657  0.48887927  0.23824195    -0.53900
O1092       O  0.93005891  0.48511813  0.19695126    -0.73300
C1093       C  0.93693056  0.50305339  0.17715580     0.99100
O1094       O  0.96151433  0.56429234  0.24095558    -0.62100
O1095       O  0.91003898  0.56814572  0.41972655    -0.56900
O1096       O  0.94361753  0.57620296  0.29207319    -0.93600
O1097       O  0.92401487  0.58007039  0.33391811    -0.92000
O1098       O  0.94734351  0.56899752  0.46414152    -0.92400
O1099       O  0.97035985  0.55939512  0.41698637    -0.91200
C1100       C  0.93406135  0.58958729  0.31105064     1.17900
H1101       H  0.92476389  0.52611219  0.45821099     0.33800
H1102       H  0.97073922  0.51660088  0.35211798     0.44700
H1103       H  0.92155495  0.53048194  0.25720527     0.38200
H1104       H  0.93296742  0.43847656  0.34471413     0.34700
H1105       H  0.97442776  0.52310227  0.49413273     0.26500
H1106       H  0.96992580  0.42168971  0.30232155     0.32400
H1107       H  0.92539586  0.43359796  0.21271147     0.38300
H1108       H  0.93810788  0.57296552  0.45296170     0.32800
H1109       H  0.90196121  0.57614522  0.40513240     0.31700
H1110       H  0.89461391  0.56206120  0.32130961     0.33400
H1111       H  0.90548523  0.50319278  0.21642928     0.32300
H1112       H  0.96891565  0.56630905  0.38409107     0.36300
H1113       H  0.96979646  0.56758676  0.25987066     0.29100
H1114       H  0.91718061  0.43729509  0.49395303     0.33300
H1115       H  0.90326907  0.43803283  0.25846421     0.36100
H1116       H  0.90650428  0.55777721  0.44691631     0.28700
H1117       H  0.96467765  0.55640293  0.21045512     0.41600
H1118       H  0.98391968  0.47529505  0.38875407     0.31700
H1119       H  0.97158913  0.49502606  0.47592316     0.39300
H1120       H  0.89747532  0.49720978  0.26374543     0.31100
H1121       H  0.95436804  0.41902801  0.29423844     0.31200
H1122       H  0.91065403  0.42884349  0.44466551     0.31500
Zr1123     Zr  0.92667634  0.47335378  0.92286775     2.17500
O1124       O  0.91188412  0.44380184  0.96662286    -0.50900
O1125       O  0.93144137  0.48477290  0.00710429    -0.74100
O1126       O  0.93577573  0.42950521  0.93018920    -0.80900
O1127       O  0.89765923  0.52071831  0.89722785    -0.82600
O1128       O  0.95555306  0.42625030  0.88922365    -0.78200
O1129       O  0.90240020  0.48081875  0.92718564    -0.89900
O1130       O  0.94679764  0.51722088  0.01051573    -0.75800
O1131       O  0.95026329  0.48191129  0.92276832    -0.85300
O1132       O  0.92875298  0.51911069  0.92911128    -0.85000
O1133       O  0.93479918  0.45681955  0.84678381    -0.71800
O1134       O  0.91543625  0.49110944  0.85372394    -0.83900
Zr1135     Zr  0.94956981  0.53034667  0.78420200     2.26400
Zr1136     Zr  0.95843122  0.46675031  0.84634994     2.06300
Zr1137     Zr  0.91787320  0.53683909  0.85946378     2.10000
Zr1138     Zr  0.95235190  0.52758988  0.92821955     1.78800
O1139       O  0.90011246  0.54725564  0.80210690    -0.92700
O1140       O  0.97362847  0.51455209  0.96445928    -0.40500
O1141       O  0.94136239  0.54581022  0.85991309    -0.77200
O1142       O  0.96128758  0.51261506  0.85308538    -0.95800
O1143       O  0.94736344  0.48472662  0.77748002    -0.89200
O1144       O  0.92603947  0.52168423  0.78335893    -0.92000
C1145       C  0.93883235  0.50097961  0.03015839     1.01800
C1146       C  0.89431867  0.49946540  0.91745720     1.14700
C1147       C  0.94619742  0.41695827  0.91590703     1.05500
O1148       O  0.97888835  0.45902405  0.89254046    -0.94100
O1149       O  0.97737841  0.47902238  0.79567826    -0.89900
O1150       O  0.97250143  0.51841973  0.76385297    -0.83000
C1151       C  0.98024352  0.49897821  0.77025308     1.12100
O1152       O  0.90599609  0.44411574  0.78971982    -0.96100
Zr1153     Zr  0.92389789  0.47579603  0.77843235     1.88900
O1154       O  0.94341204  0.52128089  0.70026133    -0.72800
O1155       O  0.96247068  0.43211109  0.78868963    -0.52000
O1156       O  0.93001800  0.43441671  0.74282867    -0.96700
O1157       O  0.90318228  0.48905146  0.73809351    -0.53900
O1158       O  0.93060184  0.48499326  0.69673268    -0.73300
C1159       C  0.93726951  0.50328766  0.67716424     0.99100
O1160       O  0.96140320  0.56452361  0.74087153    -0.62100
O1161       O  0.90988001  0.56952238  0.91591724    -0.56900
O1162       O  0.94382055  0.57628745  0.79243848    -0.93600
O1163       O  0.92410473  0.57987159  0.83362902    -0.92000
O1164       O  0.94640480  0.56810442  0.96720387    -0.92400
O1165       O  0.96919289  0.56125161  0.91742336    -0.91200
C1166       C  0.93418735  0.58953415  0.81119481     1.17900
H1167       H  0.92450031  0.52568398  0.95791654     0.33800
H1168       H  0.97070532  0.51721770  0.85309697     0.44700
H1169       H  0.92171869  0.53043928  0.75680282     0.38200
H1170       H  0.93328496  0.43849103  0.84380316     0.34700
H1171       H  0.97478809  0.52623776  0.99241325     0.26500
H1172       H  0.97065092  0.42329210  0.80071277     0.32400
H1173       H  0.92462023  0.43320806  0.71289012     0.38300
H1174       H  0.93833574  0.57417811  0.94958884     0.32800
H1175       H  0.90119977  0.57550468  0.90242094     0.31700
H1176       H  0.89494773  0.56133233  0.81758894     0.33400
H1177       H  0.90571038  0.50357378  0.71672971     0.32300
H1178       H  0.96841940  0.56622469  0.88304648     0.36300
H1179       H  0.96994772  0.56733578  0.75852389     0.29100
H1180       H  0.91721734  0.43727592  0.99421532     0.33300
H1181       H  0.90258978  0.44004096  0.75703281     0.36100
H1182       H  0.90739649  0.56006976  0.94564426     0.28700
H1183       H  0.96409773  0.55687737  0.70959683     0.41600
H1184       H  0.98308503  0.47625353  0.89608989     0.31700
H1185       H  0.97180862  0.49744942  0.97900490     0.39300
H1186       H  0.89767431  0.49704756  0.76380654     0.31100
H1187       H  0.95510049  0.41956490  0.79402117     0.31200
H1188       H  0.91054963  0.42867021  0.94530130     0.31500
Zr1189     Zr  0.82219240  0.47362886  0.94470186     2.17500
O1190       O  0.83722701  0.44350600  0.90376929    -0.50900
O1191       O  0.81750474  0.48498144  0.86054259    -0.74100
O1192       O  0.81289070  0.42993534  0.93619469    -0.80900
O1193       O  0.85146985  0.52042429  0.97143606    -0.82600
O1194       O  0.79383188  0.42584879  0.98103159    -0.78200
O1195       O  0.84638081  0.48149204  0.93787827    -0.89900
O1196       O  0.80210342  0.51734241  0.85725146    -0.75800
O1197       O  0.79863730  0.48243362  0.94489756    -0.85300
O1198       O  0.82025870  0.51936094  0.93823222    -0.85000
O1199       O  0.81417229  0.45721332  0.02092545    -0.71800
O1200       O  0.83350824  0.49136504  0.01364462    -0.83900
Zr1201     Zr  0.79951853  0.53059954  0.08359843     2.26400
Zr1202     Zr  0.79053141  0.46711460  0.02131130     2.06300
Zr1203     Zr  0.83118257  0.53705651  0.00776991     2.10000
Zr1204     Zr  0.79672588  0.52820802  0.93957894     1.78800
O1205       O  0.84920437  0.54837609  0.06351019    -0.92700
O1206       O  0.77501701  0.51760073  0.90380563    -0.40500
O1207       O  0.80771592  0.54612911  0.00805839    -0.77200
O1208       O  0.78781012  0.51303138  0.01464577    -0.95800
O1209       O  0.80169093  0.48497905  0.09020530    -0.89200
O1210       O  0.82307145  0.52199551  0.08407337    -0.92000
C1211       C  0.81011003  0.50118310  0.83756115     1.01800
C1212       C  0.85461400  0.49963706  0.94919864     1.14700
C1213       C  0.80283251  0.41694016  0.95235334     1.05500
O1214       O  0.77050461  0.46106369  0.97195524    -0.94100
O1215       O  0.77151045  0.47944808  0.07162822    -0.89900
O1216       O  0.77646525  0.51886936  0.10321445    -0.83000
C1217       C  0.76863732  0.49954142  0.09667505     1.12100
O1218       O  0.84244507  0.44337458  0.07640481    -0.96100
Zr1219     Zr  0.82516522  0.47613904  0.08908258     1.88900
O1220       O  0.80541685  0.52164674  0.16771437    -0.72800
O1221       O  0.78505651  0.43268228  0.07789171    -0.52000
O1222       O  0.81865962  0.43561244  0.12710982    -0.96700
O1223       O  0.84643915  0.48836235  0.12664725    -0.53900
O1224       O  0.81909282  0.48653271  0.17096343    -0.73300
C1225       C  0.81202761  0.50422756  0.19065775     0.99100
O1226       O  0.78745963  0.56539248  0.12414428    -0.62100
O1227       O  0.83815997  0.56901663  0.94823083    -0.56900
O1228       O  0.80573235  0.57631784  0.07670555    -0.93600
O1229       O  0.82521768  0.58002030  0.03415975    -0.92000
O1230       O  0.80392204  0.56863471  0.90283244    -0.92400
O1231       O  0.78020282  0.56249051  0.94966576    -0.91200
C1232       C  0.81528893  0.58956775  0.05753144     1.17900
H1233       H  0.82450186  0.52584689  0.90937245     0.33800
H1234       H  0.77841672  0.51773912  0.01455246     0.44700
H1235       H  0.82747149  0.53070132  0.11052308     0.38200
H1236       H  0.81573078  0.43889169  0.02378838     0.34700
H1237       H  0.77448995  0.52835386  0.87434251     0.26500
H1238       H  0.77819786  0.42206971  0.06119414     0.32400
H1239       H  0.82458426  0.43402179  0.15567362     0.38300
H1240       H  0.79826159  0.57044382  0.87363123     0.32800
H1241       H  0.84597760  0.57781618  0.96305473     0.31700
H1242       H  0.85096758  0.56691720  0.05763908     0.33400
H1243       H  0.84421543  0.50252890  0.14923731     0.32300
H1244       H  0.78396884  0.57359994  0.97541676     0.36300
H1245       H  0.77950026  0.56898433  0.10372108     0.29100
H1246       H  0.83210207  0.43671553  0.87588768     0.33300
H1247       H  0.84583552  0.43877715  0.10886423     0.36100
H1248       H  0.84201866  0.55908853  0.92103990     0.28700
H1249       H  0.78376877  0.55777774  0.15412388     0.41600
H1250       H  0.76585449  0.47795884  0.97272854     0.31700
H1251       H  0.77606194  0.49974837  0.89164114     0.39300
H1252       H  0.85161514  0.49679286  0.10052455     0.31100
H1253       H  0.79318664  0.42164952  0.07897290     0.31200
H1254       H  0.83832429  0.42864517  0.92589854     0.31500
Zr1255     Zr  0.82198301  0.47345542  0.44442441     2.17500
O1256       O  0.83696017  0.44378018  0.40201241    -0.50900
O1257       O  0.81731172  0.48505505  0.36028308    -0.74100
O1258       O  0.81265378  0.42983818  0.43642201    -0.80900
O1259       O  0.85132796  0.51975588  0.47092733    -0.82600
O1260       O  0.79302896  0.42651907  0.47834004    -0.78200
O1261       O  0.84629402  0.48032819  0.43941375    -0.89900
O1262       O  0.80219975  0.51790482  0.35759159    -0.75800
O1263       O  0.79842698  0.48218384  0.44534784    -0.85300
O1264       O  0.82002489  0.51920533  0.43812862    -0.85000
O1265       O  0.81391388  0.45689705  0.52048093    -0.71800
O1266       O  0.83330368  0.49116781  0.51327472    -0.83900
Zr1267     Zr  0.79958645  0.53040581  0.58414217     2.26400
Zr1268     Zr  0.79031608  0.46699987  0.52185559     2.06300
Zr1269     Zr  0.83109729  0.53689099  0.50739975     2.10000
Zr1270     Zr  0.79646203  0.52786814  0.43998550     1.78800
O1271       O  0.84966451  0.54955527  0.55976300    -0.92700
O1272       O  0.77537132  0.51475295  0.40238820    -0.40500
O1273       O  0.80758915  0.54604505  0.50821579    -0.77200
O1274       O  0.78767902  0.51294304  0.51544209    -0.95800
O1275       O  0.80159904  0.48476952  0.59050210    -0.89200
O1276       O  0.82313087  0.52158482  0.58383911    -0.92000
C1277       C  0.81006667  0.50162628  0.33758907     1.01800
C1278       C  0.85452106  0.49863880  0.44983451     1.14700
C1279       C  0.80228281  0.41725971  0.45109708     1.05500
O1280       O  0.76950297  0.46101527  0.47679491    -0.94100
O1281       O  0.77176223  0.47919943  0.57458013    -0.89900
O1282       O  0.77647606  0.51924833  0.60384453    -0.83000
C1283       C  0.76880902  0.49956384  0.59873676     1.12100
O1284       O  0.84189491  0.44212481  0.57610806    -0.96100
Zr1285     Zr  0.82501972  0.47564206  0.58849910     1.88900
O1286       O  0.80577749  0.52100123  0.66782863    -0.72800
O1287       O  0.78624024  0.43165331  0.57804556    -0.52000
O1288       O  0.81812533  0.43515720  0.62579336    -0.96700
O1289       O  0.84658871  0.48768931  0.62388102    -0.53900
O1290       O  0.81918736  0.48553913  0.67076009    -0.73300
C1291       C  0.81226473  0.50337293  0.69062756     0.99100
O1292       O  0.78825349  0.56445629  0.62956969    -0.62100
O1293       O  0.83798354  0.56864183  0.44730856    -0.56900
O1294       O  0.80546151  0.57615957  0.57601595    -0.93600
O1295       O  0.82525042  0.57972595  0.53527418    -0.92000
O1296       O  0.80279705  0.56931344  0.40526529    -0.92400
O1297       O  0.77853808  0.55961974  0.44773858    -0.91200
C1298       C  0.81514865  0.58934964  0.55760375     1.17900
H1299       H  0.82422239  0.52571276  0.40916058     0.33800
H1300       H  0.77828241  0.51766686  0.51562445     0.44700
H1301       H  0.82764937  0.53016237  0.61019397     0.38200
H1302       H  0.81538026  0.43854798  0.52325034     0.34700
H1303       H  0.77529175  0.52354571  0.37068470     0.26500
H1304       H  0.77798961  0.42311207  0.56591680     0.32400
H1305       H  0.82319202  0.43429548  0.65649976     0.38300
H1306       H  0.79915480  0.56898190  0.37202961     0.32800
H1307       H  0.84645023  0.57606107  0.46004198     0.31700
H1308       H  0.85397842  0.56430133  0.54311293     0.33400
H1309       H  0.84447367  0.50113497  0.64808407     0.32300
H1310       H  0.78012229  0.56775121  0.47955476     0.36300
H1311       H  0.77990989  0.56841638  0.61149655     0.29100
H1312       H  0.83177121  0.43728527  0.37404236     0.33300
H1313       H  0.84509057  0.43729877  0.60870289     0.36100
H1314       H  0.84081990  0.55856703  0.41873490     0.28700
H1315       H  0.78514980  0.55630595  0.65991876     0.41600
H1316       H  0.76520271  0.47825443  0.47650936     0.31700
H1317       H  0.77657618  0.49626277  0.39449354     0.39300
H1318       H  0.85133787  0.49705519  0.59781949     0.31100
H1319       H  0.79353779  0.41904241  0.57204259     0.31200
H1320       H  0.83809516  0.42867303  0.42352831     0.31500
Zr1321     Zr  0.92661229  0.28416634  0.94466397     2.17500
O1322       O  0.91166225  0.31389913  0.90224781    -0.50900
O1323       O  0.93118726  0.27241627  0.86057600    -0.74100
O1324       O  0.93598484  0.32770338  0.93571226    -0.80900
O1325       O  0.89725848  0.23819151  0.97261540    -0.82600
O1326       O  0.95512233  0.33158581  0.98019888    -0.78200
O1327       O  0.90236990  0.27694666  0.93845476    -0.89900
O1328       O  0.94636168  0.23964690  0.85774381    -0.75800
O1329       O  0.95016511  0.27539344  0.94528922    -0.85300
O1330       O  0.92863174  0.23838010  0.93868827    -0.85000
O1331       O  0.93460257  0.30089622  0.02085238    -0.71800
O1332       O  0.91520184  0.26665072  0.01354650    -0.83900
Zr1333     Zr  0.94913864  0.22751207  0.08449731     2.26400
Zr1334     Zr  0.95825014  0.29071768  0.02160017     2.06300
Zr1335     Zr  0.91756447  0.22092263  0.00809659     2.10000
Zr1336     Zr  0.95219690  0.22969250  0.94024611     1.78800
O1337       O  0.89969867  0.20773779  0.06305410    -0.92700
O1338       O  0.97339179  0.24277871  0.90336684    -0.40500
O1339       O  0.94106045  0.21186869  0.00869735    -0.77200
O1340       O  0.96098665  0.24483895  0.01552407    -0.95800
O1341       O  0.94694045  0.27315655  0.09043884    -0.89200
O1342       O  0.92557838  0.23618229  0.08447037    -0.92000
C1343       C  0.93844027  0.25589437  0.83780810     1.01800
C1344       C  0.89411831  0.25890129  0.95010268     1.14700
C1345       C  0.94612359  0.34053864  0.95162845     1.05500
O1346       O  0.97805144  0.29603517  0.97074392    -0.94100
O1347       O  0.97698665  0.27859814  0.07351212    -0.89900
O1348       O  0.97227439  0.23879855  0.10379944    -0.83000
C1349       C  0.97998585  0.25835537  0.09791543     1.12100
O1350       O  0.90589279  0.31443599  0.07828427    -0.96100
Zr1351     Zr  0.92346708  0.28206350  0.08886727     1.88900
O1352       O  0.94302996  0.23722094  0.16820780    -0.72800
O1353       O  0.96455627  0.32570933  0.07579008    -0.52000
O1354       O  0.93007276  0.32233426  0.12766659    -0.96700
O1355       O  0.90200495  0.26945870  0.12454743    -0.53900
O1356       O  0.92910248  0.27196662  0.17101269    -0.73300
C1357       C  0.93623989  0.25448114  0.19089707     0.99100
O1358       O  0.96102991  0.19346838  0.12811478    -0.62100
O1359       O  0.91034760  0.18953270  0.94779303    -0.56900
O1360       O  0.94293365  0.18178281  0.07757192    -0.93600
O1361       O  0.92356850  0.17796420  0.03431949    -0.92000
O1362       O  0.94652366  0.18794237  0.90526387    -0.92400
O1363       O  0.96957418  0.19703154  0.95074897    -0.91200
C1364       C  0.93345797  0.16846985  0.05799960     1.17900
H1365       H  0.92440717  0.23176802  0.90985776     0.33800
H1366       H  0.97039563  0.24017931  0.01559793     0.44700
H1367       H  0.92111405  0.22757488  0.11091193     0.38200
H1368       H  0.93309605  0.31923707  0.02354424     0.34700
H1369       H  0.97398883  0.23249251  0.87334718     0.26500
H1370       H  0.97116796  0.33612467  0.05746439     0.32400
H1371       H  0.93924947  0.31907266  0.14019659     0.38300
H1372       H  0.95121703  0.18761313  0.87376690     0.32800
H1373       H  0.90241235  0.18093943  0.96222471     0.31700
H1374       H  0.89313831  0.19842872  0.04255491     0.33400
H1375       H  0.90425687  0.25681942  0.15007886     0.32300
H1376       H  0.96797738  0.19004385  0.98349960     0.36300
H1377       H  0.96917427  0.18958702  0.10884454     0.29100
H1378       H  0.91677196  0.32002073  0.87380545     0.33300
H1379       H  0.90363538  0.32048499  0.11118260     0.36100
H1380       H  0.90663635  0.19974117  0.92069980     0.28700
H1381       H  0.96443862  0.20152617  0.15813303     0.41600
H1382       H  0.98400882  0.28139434  0.97914461     0.31700
H1383       H  0.97185806  0.26067923  0.89215025     0.39300
H1384       H  0.89749764  0.25912077  0.09923670     0.31100
H1385       H  0.95645446  0.33676915  0.07791756     0.31200
H1386       H  0.91070627  0.32921603  0.92335496     0.31500
Zr1387     Zr  0.92669736  0.28470015  0.44498297     2.17500
O1388       O  0.91204989  0.31405811  0.40027849    -0.50900
O1389       O  0.93137275  0.27366748  0.36068198    -0.74100
O1390       O  0.93573857  0.32862075  0.43905243    -0.80900
O1391       O  0.89751304  0.23761712  0.47008244    -0.82600
O1392       O  0.95543732  0.33162434  0.48064339    -0.78200
O1393       O  0.90235908  0.27763210  0.44091324    -0.89900
O1394       O  0.94597244  0.23999831  0.35715922    -0.75800
O1395       O  0.95029829  0.27612184  0.44537552    -0.85300
O1396       O  0.92870639  0.23898731  0.43811408    -0.85000
O1397       O  0.93485623  0.30074965  0.52131690    -0.71800
O1398       O  0.91535687  0.26674562  0.51355693    -0.83900
Zr1399     Zr  0.94920271  0.22720356  0.58378611     2.26400
Zr1400     Zr  0.95845398  0.29071922  0.52220842     2.06300
Zr1401     Zr  0.91772657  0.22103815  0.50726473     2.10000
Zr1402     Zr  0.95228580  0.23048376  0.43919912     1.78800
O1403       O  0.89974480  0.20985749  0.56318142    -0.92700
O1404       O  0.97290069  0.24575177  0.40087295    -0.40500
O1405       O  0.94122590  0.21210278  0.50745207    -0.77200
O1406       O  0.96108577  0.24483374  0.51511601    -0.95800
O1407       O  0.94718417  0.27283066  0.59081705    -0.89200
O1408       O  0.92570656  0.23599857  0.58383719    -0.92000
C1409       C  0.93830897  0.25679120  0.33760622     1.01800
C1410       C  0.89421921  0.25899301  0.45019144     1.14700
C1411       C  0.94611843  0.34108768  0.45398714     1.05500
O1412       O  0.97916451  0.29625265  0.47638060    -0.94100
O1413       O  0.97708714  0.27832261  0.57406548    -0.89900
O1414       O  0.97220887  0.23851661  0.60402998    -0.83000
C1415       C  0.97994607  0.25803862  0.59851561     1.12100
O1416       O  0.90704442  0.31576988  0.57612383    -0.96100
Zr1417     Zr  0.92373111  0.28192420  0.58900462     1.88900
O1418       O  0.94286736  0.23636060  0.66767438    -0.72800
O1419       O  0.96348342  0.32589735  0.57769903    -0.52000
O1420       O  0.93050936  0.32249823  0.62628185    -0.96700
O1421       O  0.90220155  0.26980933  0.62467675    -0.53900
O1422       O  0.92951005  0.27190777  0.67120588    -0.73300
C1423       C  0.93638345  0.25391277  0.69078718     0.99100
O1424       O  0.96083189  0.19284905  0.62736000    -0.62100
O1425       O  0.91025353  0.18864870  0.44922637    -0.56900
O1426       O  0.94324607  0.18142971  0.57543768    -0.93600
O1427       O  0.92378049  0.17790331  0.53272259    -0.92000
O1428       O  0.94686514  0.18932917  0.40147219    -0.92400
O1429       O  0.96988970  0.19807034  0.44682069    -0.91200
C1430       C  0.93372412  0.16823514  0.55589433     1.17900
H1431       H  0.92443330  0.23252401  0.40924438     0.33800
H1432       H  0.97048088  0.24007770  0.51528646     0.44700
H1433       H  0.92127167  0.22725306  0.61017264     0.38200
H1434       H  0.93336593  0.31906843  0.52473829     0.34700
H1435       H  0.97468079  0.23320612  0.37469942     0.26500
H1436       H  0.97070206  0.33591791  0.56168887     0.32400
H1437       H  0.92550707  0.32324041  0.65712739     0.38300
H1438       H  0.94059010  0.18083755  0.42422800     0.32800
H1439       H  0.90141473  0.18271207  0.46141583     0.31700
H1440       H  0.89282578  0.20132749  0.54301894     0.33400
H1441       H  0.90405910  0.25425367  0.64430074     0.32300
H1442       H  0.96860667  0.19079503  0.47952140     0.36300
H1443       H  0.96908917  0.18915123  0.60858651     0.29100
H1444       H  0.91762894  0.32134337  0.37400247     0.33300
H1445       H  0.90334099  0.31982636  0.60838975     0.36100
H1446       H  0.90811317  0.19824286  0.41932150     0.28700
H1447       H  0.96406239  0.20073249  0.65778312     0.41600
H1448       H  0.98299587  0.27867114  0.47372272     0.31700
H1449       H  0.97031129  0.26179764  0.38382869     0.39300
H1450       H  0.89677915  0.26340593  0.59720308     0.31100
H1451       H  0.95548635  0.33728114  0.57657476     0.31200
H1452       H  0.91023014  0.32873400  0.42222530     0.31500
Zr1453     Zr  0.82198482  0.28422118  0.42252625     2.17500
O1454       O  0.83689219  0.31373890  0.46571830    -0.50900
O1455       O  0.81705154  0.27266789  0.50652922    -0.74100
O1456       O  0.81283195  0.32802263  0.43064399    -0.80900
O1457       O  0.85138429  0.23812742  0.39478084    -0.82600
O1458       O  0.79347988  0.33155835  0.38726826    -0.78200
O1459       O  0.84623798  0.27685900  0.42894034    -0.89900
O1460       O  0.80214461  0.23945357  0.50969081    -0.75800
O1461       O  0.79843114  0.27541387  0.42196215    -0.85300
O1462       O  0.81996168  0.23848179  0.42910790    -0.85000
O1463       O  0.81401097  0.30070509  0.34613711    -0.71800
O1464       O  0.83332924  0.26653272  0.35358195    -0.83900
Zr1465     Zr  0.79932899  0.22719247  0.28334166     2.26400
Zr1466     Zr  0.79036797  0.29067558  0.34555413     2.06300
Zr1467     Zr  0.83097352  0.22083790  0.35970268     2.10000
Zr1468     Zr  0.79639544  0.22968684  0.42737382     1.78800
O1469       O  0.84846841  0.20765448  0.30330788    -0.92700
O1470       O  0.77532019  0.24225471  0.46588113    -0.40500
O1471       O  0.80747273  0.21191275  0.35907991    -0.77200
O1472       O  0.78752491  0.24477967  0.35204225    -0.95800
O1473       O  0.80152821  0.27281660  0.27668396    -0.89200
O1474       O  0.82290212  0.23578751  0.28320070    -0.92000
C1475       C  0.80988910  0.25603852  0.52943265     1.01800
C1476       C  0.85452142  0.25886874  0.41727207     1.14700
C1477       C  0.80258483  0.34072479  0.41521961     1.05500
O1478       O  0.77024305  0.29582328  0.39474701    -0.94100
O1479       O  0.77175441  0.27900485  0.29284197    -0.89900
O1480       O  0.77645844  0.23925064  0.26237706    -0.83000
C1481       C  0.76881533  0.25890069  0.26795919     1.12100
O1482       O  0.84280176  0.31366459  0.28758830    -0.96100
Zr1483     Zr  0.82499849  0.28164293  0.27796797     1.88900
O1484       O  0.80548276  0.23566213  0.19931333    -0.72800
O1485       O  0.78466973  0.32577651  0.29077988    -0.52000
O1486       O  0.81866189  0.32266316  0.24137993    -0.96700
O1487       O  0.84607986  0.26893136  0.23949990    -0.53900
O1488       O  0.81867135  0.27145185  0.19621694    -0.73300
C1489       C  0.81187527  0.25339792  0.17642340     0.99100
O1490       O  0.78693463  0.19267440  0.24298806    -0.62100
O1491       O  0.83851697  0.18972555  0.41992776    -0.56900
O1492       O  0.80526173  0.18143850  0.29149335    -0.93600
O1493       O  0.82454944  0.17771895  0.33526064    -0.92000
O1494       O  0.80338183  0.18806192  0.45973940    -0.92400
O1495       O  0.77916439  0.19649434  0.41987967    -0.91200
C1496       C  0.81464756  0.16816385  0.31164772     1.17900
H1497       H  0.82418876  0.23195078  0.45795739     0.33800
H1498       H  0.77810809  0.24017618  0.35169572     0.44700
H1499       H  0.82731254  0.22703848  0.25682509     0.38200
H1500       H  0.81553119  0.31902415  0.34327159     0.34700
H1501       H  0.77499270  0.23217719  0.49620306     0.26500
H1502       H  0.77792643  0.33624560  0.30835100     0.32400
H1503       H  0.82292320  0.32255610  0.20909849     0.38300
H1504       H  0.79963191  0.18750575  0.49280068     0.32800
H1505       H  0.84657700  0.18155827  0.40554351     0.31700
H1506       H  0.85529926  0.19886651  0.32344797     0.33400
H1507       H  0.84373021  0.25470493  0.21719701     0.32300
H1508       H  0.77976249  0.19078206  0.38586365     0.36300
H1509       H  0.77868843  0.18991732  0.26239829     0.29100
H1510       H  0.83162800  0.32029425  0.49345264     0.33300
H1511       H  0.84530611  0.31906953  0.25452605     0.36100
H1512       H  0.84205926  0.20006782  0.44714283     0.28700
H1513       H  0.78373982  0.20003706  0.21207277     0.41600
H1514       H  0.76523819  0.27942614  0.39084009     0.31700
H1515       H  0.77675107  0.26029344  0.47652209     0.39300
H1516       H  0.85134740  0.26055600  0.26544970     0.31100
H1517       H  0.79282451  0.33674632  0.28958839     0.31200
H1518       H  0.83817943  0.32883658  0.44428949     0.31500
Zr1519     Zr  0.82208747  0.28385521  0.92256157     2.17500
O1520       O  0.83695505  0.31387266  0.96497558    -0.50900
O1521       O  0.81735051  0.27205007  0.00662305    -0.74100
O1522       O  0.81283327  0.32753337  0.93088746    -0.80900
O1523       O  0.85126053  0.23754485  0.89551869    -0.82600
O1524       O  0.79384198  0.33182817  0.88572013    -0.78200
O1525       O  0.84628238  0.27659615  0.92871920    -0.89900
O1526       O  0.80186542  0.23981484  0.00938124    -0.75800
O1527       O  0.79850284  0.27561053  0.92147707    -0.85300
O1528       O  0.81987275  0.23809607  0.92875743    -0.85000
O1529       O  0.81428773  0.30035687  0.84606036    -0.71800
O1530       O  0.83339755  0.26599587  0.85365363    -0.83900
Zr1531     Zr  0.79932936  0.22706045  0.78278314     2.26400
Zr1532     Zr  0.79060205  0.29077363  0.84470288     2.06300
Zr1533     Zr  0.83091978  0.22038393  0.85947581     2.10000
Zr1534     Zr  0.79624190  0.22996787  0.92686427     1.78800
O1535       O  0.84870498  0.20834095  0.80334633    -0.92700
O1536       O  0.77500103  0.24494961  0.96093014    -0.40500
O1537       O  0.80736758  0.21175237  0.85879922    -0.77200
O1538       O  0.78752260  0.24489040  0.85127214    -0.95800
O1539       O  0.80175111  0.27259872  0.77616760    -0.89200
O1540       O  0.82294287  0.23537562  0.78291067    -0.92000
C1541       C  0.80992244  0.25578355  0.02936760     1.01800
C1542       C  0.85447733  0.25842400  0.91744360     1.14700
C1543       C  0.80281936  0.34060700  0.91464905     1.05500
O1544       O  0.77041922  0.29707188  0.89307287    -0.94100
O1545       O  0.77178027  0.27901588  0.79299230    -0.89900
O1546       O  0.77638948  0.23923190  0.76235584    -0.83000
C1547       C  0.76876763  0.25891883  0.76818213     1.12100
O1548       O  0.84338674  0.31234984  0.78874130    -0.96100
Zr1549     Zr  0.82521876  0.28121837  0.77797092     1.88900
O1550       O  0.80543012  0.23616129  0.69899306    -0.72800
O1551       O  0.78573924  0.32539387  0.78783950    -0.52000
O1552       O  0.81836357  0.32235989  0.74319076    -0.96700
O1553       O  0.84619151  0.26927460  0.73799368    -0.53900
O1554       O  0.81887983  0.27158922  0.69609635    -0.73300
C1555       C  0.81190784  0.25381936  0.67624660     0.99100
O1556       O  0.78730657  0.19305219  0.73956859    -0.62100
O1557       O  0.83857856  0.18857875  0.91818062    -0.56900
O1558       O  0.80513302  0.18120362  0.79059795    -0.93600
O1559       O  0.82454943  0.17748706  0.83365538    -0.92000
O1560       O  0.80161299  0.18885029  0.96485398    -0.92400
O1561       O  0.77946426  0.19597764  0.91933557    -0.91200
C1562       C  0.81461890  0.16794676  0.81020939     1.17900
H1563       H  0.82402347  0.23140299  0.95765720     0.33800
H1564       H  0.77808625  0.24041486  0.85105021     0.44700
H1565       H  0.82736509  0.22663985  0.75652569     0.38200
H1566       H  0.81591762  0.31865355  0.84331358     0.34700
H1567       H  0.77317720  0.23312058  0.98820044     0.26500
H1568       H  0.77866122  0.33585878  0.80362805     0.32400
H1569       H  0.82247067  0.32270795  0.71066736     0.38300
H1570       H  0.80789980  0.18030603  0.94221493     0.32800
H1571       H  0.84703994  0.18163999  0.90451383     0.31700
H1572       H  0.85542246  0.19909248  0.82325875     0.33400
H1573       H  0.84369536  0.25611390  0.71370638     0.32300
H1574       H  0.77881216  0.19276917  0.88421039     0.36300
H1575       H  0.77905017  0.18965837  0.75854457     0.29100
H1576       H  0.83178645  0.32024971  0.99308729     0.33300
H1577       H  0.84510281  0.31971611  0.75636999     0.36100
H1578       H  0.84146945  0.19861725  0.94674451     0.28700
H1579       H  0.78409195  0.20101631  0.70919747     0.41600
H1580       H  0.76550604  0.28048299  0.89087896     0.31700
H1581       H  0.77714459  0.26166131  0.97647735     0.39300
H1582       H  0.85130821  0.25959451  0.76271909     0.31100
H1583       H  0.79384433  0.33651384  0.78822162     0.31200
H1584       H  0.83804360  0.32904254  0.94357314     0.31500
Zr1585     Zr  0.92697944  0.78475408  0.19527720     2.17500
O1586       O  0.91233231  0.81435200  0.15118478    -0.50900
O1587       O  0.93189556  0.77352672  0.11130968    -0.74100
O1588       O  0.93616411  0.82848489  0.18762197    -0.80900
O1589       O  0.89782303  0.73786185  0.21973037    -0.82600
O1590       O  0.95548735  0.83219379  0.23114371    -0.78200
O1591       O  0.90277479  0.77749578  0.18898645    -0.89900
O1592       O  0.94708439  0.74082336  0.10782885    -0.75800
O1593       O  0.95051370  0.77614947  0.19612809    -0.85300
O1594       O  0.92906942  0.73904651  0.18856291    -0.85000
O1595       O  0.93483412  0.80122414  0.27167894    -0.71800
O1596       O  0.91552039  0.76682648  0.26375123    -0.83900
Zr1597     Zr  0.94934326  0.72761356  0.33442582     2.26400
Zr1598     Zr  0.95847022  0.79126788  0.27279352     2.06300
Zr1599     Zr  0.91794863  0.72112074  0.25750619     2.10000
Zr1600     Zr  0.95263760  0.73051063  0.19026649     1.78800
O1601       O  0.90008572  0.70936086  0.31349738    -0.92700
O1602       O  0.97375256  0.74474261  0.15422634    -0.40500
O1603       O  0.94146839  0.71220253  0.25823663    -0.77200
O1604       O  0.96130010  0.74531777  0.26606473    -0.95800
O1605       O  0.94715161  0.77322282  0.34108738    -0.89200
O1606       O  0.92577768  0.73622512  0.33426160    -0.92000
C1607       C  0.93919888  0.75723838  0.08824136     1.01800
C1608       C  0.89461598  0.75899596  0.19873849     1.14700
C1609       C  0.94638153  0.84124651  0.20306069     1.05500
O1610       O  0.97862411  0.79856348  0.22473568    -0.94100
O1611       O  0.97741336  0.77885621  0.32342430    -0.89900
O1612       O  0.97220430  0.73972581  0.35576426    -0.83000
C1613       C  0.98009505  0.75895245  0.34926409     1.12100
O1614       O  0.90561428  0.81325935  0.32708808    -0.96100
Zr1615     Zr  0.92370210  0.78212659  0.33946445     1.88900
O1616       O  0.94322461  0.73667091  0.41827471    -0.72800
O1617       O  0.96286451  0.82553276  0.33091832    -0.52000
O1618       O  0.92950839  0.82383294  0.37454113    -0.96700
O1619       O  0.90282762  0.76933148  0.37918039    -0.53900
O1620       O  0.93048962  0.77304010  0.42133484    -0.73300
C1621       C  0.93718953  0.75485095  0.44114741     0.99100
O1622       O  0.96128814  0.69341651  0.37735316    -0.62100
O1623       O  0.91006466  0.68934677  0.19899364    -0.56900
O1624       O  0.94339675  0.68173973  0.32656510    -0.93600
O1625       O  0.92417103  0.67792838  0.28254340    -0.92000
O1626       O  0.94626639  0.68991965  0.15228815    -0.92400
O1627       O  0.96985282  0.69728687  0.19810667    -0.91200
C1628       C  0.93401871  0.66837945  0.30645344     1.17900
H1629       H  0.92489881  0.73257451  0.15950444     0.33800
H1630       H  0.97069937  0.74063555  0.26645671     0.44700
H1631       H  0.92133235  0.72749314  0.36058575     0.38200
H1632       H  0.93329311  0.81954169  0.27454828     0.34700
H1633       H  0.97497228  0.73352903  0.12564542     0.26500
H1634       H  0.97064993  0.83508049  0.31754438     0.32400
H1635       H  0.92579965  0.82339694  0.40767145     0.38300
H1636       H  0.94240411  0.67940291  0.17870435     0.32800
H1637       H  0.90110274  0.68394649  0.21090319     0.31700
H1638       H  0.89695191  0.69222487  0.30237630     0.33400
H1639       H  0.90538273  0.75569596  0.40244884     0.32300
H1640       H  0.96809256  0.68928179  0.22991881     0.36300
H1641       H  0.96960460  0.69017894  0.35863002     0.29100
H1642       H  0.91771552  0.82075996  0.12361965     0.33300
H1643       H  0.90298542  0.81922896  0.35967714     0.36100
H1644       H  0.90814849  0.69912635  0.16909754     0.28700
H1645       H  0.96439938  0.70119298  0.40803865     0.41600
H1646       H  0.98319130  0.78158986  0.22375929     0.31700
H1647       H  0.97178125  0.76199814  0.14058715     0.39300
H1648       H  0.89764461  0.76017834  0.35392974     0.31100
H1649       H  0.95517861  0.83757259  0.32769404     0.31200
H1650       H  0.91102723  0.82953240  0.17239700     0.31500
Zr1651     Zr  0.92694868  0.78434665  0.69482410     2.17500
O1652       O  0.91264693  0.81397079  0.64935671    -0.50900
O1653       O  0.93210954  0.77297626  0.61096585    -0.74100
O1654       O  0.93625519  0.82816948  0.68807870    -0.80900
O1655       O  0.89743432  0.73814560  0.72200908    -0.82600
O1656       O  0.95580813  0.83138897  0.73039307    -0.78200
O1657       O  0.90264590  0.77705988  0.68859514    -0.89900
O1658       O  0.94726453  0.74020303  0.60823819    -0.75800
O1659       O  0.95047508  0.77540195  0.69648339    -0.85300
O1660       O  0.92885355  0.73857393  0.68877285    -0.85000
O1661       O  0.93473824  0.80082805  0.77131007    -0.71800
O1662       O  0.91540813  0.76670154  0.76344575    -0.83900
Zr1663     Zr  0.94907995  0.72753467  0.83542586     2.26400
Zr1664     Zr  0.95833876  0.79075445  0.77323975     2.06300
Zr1665     Zr  0.91770937  0.72091413  0.75796979     2.10000
Zr1666     Zr  0.95236448  0.72965980  0.69106496     1.78800
O1667       O  0.89975252  0.70815952  0.81282952    -0.92700
O1668       O  0.97385917  0.74135456  0.65483205    -0.40500
O1669       O  0.94119062  0.71185859  0.75943665    -0.77200
O1670       O  0.96105434  0.74481552  0.76665619    -0.95800
O1671       O  0.94692969  0.77315213  0.84173624    -0.89200
O1672       O  0.92552127  0.73625233  0.83464147    -0.92000
C1673       C  0.93947949  0.75665247  0.58821117     1.01800
C1674       C  0.89433798  0.75898460  0.69977907     1.14700
C1675       C  0.94661328  0.84072797  0.70304186     1.05500
O1676       O  0.97931714  0.79777641  0.72969947    -0.94100
O1677       O  0.97711084  0.77848675  0.82470917    -0.89900
O1678       O  0.97214473  0.73888642  0.85544060    -0.83000
C1679       C  0.97994214  0.75831207  0.84956206     1.12100
O1680       O  0.90601242  0.81453425  0.82610314    -0.96100
Zr1681     Zr  0.92346963  0.78217269  0.83919589     1.88900
O1682       O  0.94295363  0.73731958  0.91891298    -0.72800
O1683       O  0.96163307  0.82574551  0.83076903    -0.52000
O1684       O  0.92950338  0.82329356  0.87612640    -0.96700
O1685       O  0.90219754  0.76972915  0.87655796    -0.53900
O1686       O  0.92975173  0.77307675  0.92145082    -0.73300
C1687       C  0.93664513  0.75524360  0.94149009     0.99100
O1688       O  0.96053102  0.69383393  0.88140005    -0.62100
O1689       O  0.91052258  0.68974274  0.69711700    -0.56900
O1690       O  0.94314145  0.68167688  0.82823565    -0.93600
O1691       O  0.92398494  0.67781918  0.78380168    -0.92000
O1692       O  0.94525016  0.68938509  0.65362197    -0.92400
O1693       O  0.96889640  0.69532284  0.70069426    -0.91200
C1694       C  0.93381103  0.66830002  0.80791613     1.17900
H1695       H  0.92470115  0.73207868  0.65971265     0.33800
H1696       H  0.97045505  0.74011682  0.76694763     0.44700
H1697       H  0.92102870  0.72761879  0.86098330     0.38200
H1698       H  0.93325106  0.81918293  0.77409094     0.34700
H1699       H  0.97481508  0.72962795  0.62683636     0.26500
H1700       H  0.96896081  0.83635241  0.81687235     0.32400
H1701       H  0.92403849  0.82430678  0.90593112     0.38300
H1702       H  0.93996430  0.68040723  0.67882526     0.32800
H1703       H  0.90286222  0.68044996  0.71193482     0.31700
H1704       H  0.89483867  0.69434175  0.79555516     0.33400
H1705       H  0.90439011  0.75523339  0.89844086     0.32300
H1706       H  0.96613721  0.68623539  0.73052034     0.36300
H1707       H  0.96884580  0.68978115  0.86323446     0.29100
H1708       H  0.91830547  0.82075979  0.62283466     0.33300
H1709       H  0.90272330  0.81941736  0.85855288     0.36100
H1710       H  0.90643420  0.69996916  0.67074957     0.28700
H1711       H  0.96367991  0.70217644  0.91151683     0.41600
H1712       H  0.97670350  0.79818859  0.69525617     0.31700
H1713       H  0.97232206  0.75855859  0.64030080     0.39300
H1714       H  0.89693785  0.76174998  0.85014206     0.31100
H1715       H  0.95348504  0.83662893  0.82777731     0.31200
H1716       H  0.91101066  0.82891992  0.67084418     0.31500
Zr1717     Zr  0.82242514  0.78423912  0.17182581     2.17500
O1718       O  0.83716887  0.81405676  0.21499641    -0.50900
O1719       O  0.81791215  0.77218580  0.25593388    -0.74100
O1720       O  0.81323694  0.82801304  0.17962838    -0.80900
O1721       O  0.85180654  0.73795882  0.14413463    -0.82600
O1722       O  0.79384828  0.83177871  0.13653398    -0.78200
O1723       O  0.84673177  0.77707638  0.17682821    -0.89900
O1724       O  0.80260429  0.73963945  0.25922081    -0.75800
O1725       O  0.79885037  0.77550094  0.17176683    -0.85300
O1726       O  0.82038479  0.73852448  0.17811024    -0.85000
O1727       O  0.81427778  0.80072635  0.09574359    -0.71800
O1728       O  0.83370341  0.76666178  0.10273852    -0.83900
Zr1729     Zr  0.79975228  0.72714023  0.03294461     2.26400
Zr1730     Zr  0.79065071  0.79070479  0.09550476     2.06300
Zr1731     Zr  0.83143383  0.72095370  0.10876394     2.10000
Zr1732     Zr  0.79681059  0.72977148  0.17684398     1.78800
O1733       O  0.84923671  0.70864134  0.05289082    -0.92700
O1734       O  0.77575439  0.74215704  0.21563715    -0.40500
O1735       O  0.80793495  0.71176888  0.10863821    -0.77200
O1736       O  0.78792696  0.74478297  0.10164887    -0.95800
O1737       O  0.80177602  0.77280676  0.02655788    -0.89200
O1738       O  0.82326948  0.73598319  0.03244486    -0.92000
C1739       C  0.81060331  0.75581380  0.27893098     1.01800
C1740       C  0.85498028  0.75891787  0.16575261     1.14700
C1741       C  0.80303994  0.84085711  0.16423819     1.05500
O1742       O  0.77067547  0.79609816  0.14547366    -0.94100
O1743       O  0.77197292  0.77853281  0.04349905    -0.89900
O1744       O  0.77673418  0.73877091  0.01297237    -0.83000
C1745       C  0.76905121  0.75836889  0.01874649     1.12100
O1746       O  0.84273126  0.81434558  0.03733029    -0.96100
Zr1747     Zr  0.82520944  0.78184829  0.02748458     1.88900
O1748       O  0.80588872  0.73613379  0.94908577    -0.72800
O1749       O  0.78503432  0.82589939  0.04080367    -0.52000
O1750       O  0.81860203  0.82258784  0.99051882    -0.96700
O1751       O  0.84645005  0.76919390  0.99033795    -0.53900
O1752       O  0.81900942  0.77199151  0.94557033    -0.73300
C1753       C  0.81219312  0.75390291  0.92601036     0.99100
O1754       O  0.78812439  0.69303061  0.98871125    -0.62100
O1755       O  0.83916529  0.69017249  0.16930626    -0.56900
O1756       O  0.80572453  0.68134026  0.04236913    -0.93600
O1757       O  0.82547133  0.67778521  0.08347575    -0.92000
O1758       O  0.80326876  0.68815598  0.21047004    -0.92400
O1759       O  0.77909009  0.69770338  0.16689728    -0.91200
C1760       C  0.81536220  0.66813110  0.06121853     1.17900
H1761       H  0.82461367  0.73199482  0.20694245     0.33800
H1762       H  0.77851779  0.74009626  0.10156598     0.44700
H1763       H  0.82769598  0.72732978  0.00594047     0.38200
H1764       H  0.81579849  0.81904065  0.09271916     0.34700
H1765       H  0.77480302  0.73017836  0.24325964     0.26500
H1766       H  0.77788598  0.83575319  0.05754147     0.32400
H1767       H  0.80986195  0.81896095  0.97474653     0.38300
H1768       H  0.79872338  0.68737636  0.24221098     0.32800
H1769       H  0.84781693  0.68356621  0.15663766     0.31700
H1770       H  0.85566377  0.69853555  0.07258252     0.33400
H1771       H  0.84408925  0.75590339  0.96611456     0.32300
H1772       H  0.78040886  0.69090835  0.13385149     0.36300
H1773       H  0.77980002  0.68942154  0.00715951     0.29100
H1774       H  0.83181163  0.82081431  0.24232864     0.33300
H1775       H  0.84496361  0.82019355  0.00428479     0.36100
H1776       H  0.84172433  0.70057127  0.19782993     0.28700
H1777       H  0.78500886  0.70104092  0.95825592     0.41600
H1778       H  0.76515634  0.78052954  0.13929236     0.31700
H1779       H  0.77760669  0.75913594  0.23063457     0.39300
H1780       H  0.85128288  0.75961309  0.01590986     0.31100
H1781       H  0.79297971  0.83743943  0.04123367     0.31200
H1782       H  0.83854018  0.82899622  0.19324252     0.31500
Zr1783     Zr  0.82206069  0.78391363  0.67242113     2.17500
O1784       O  0.83690040  0.81322700  0.71638403    -0.50900
O1785       O  0.81731578  0.77208545  0.75632098    -0.74100
O1786       O  0.81291513  0.82771612  0.68040389    -0.80900
O1787       O  0.85139364  0.73755712  0.64628034    -0.82600
O1788       O  0.79364268  0.83146131  0.63657538    -0.78200
O1789       O  0.84638647  0.77710341  0.67723529    -0.89900
O1790       O  0.80200416  0.73953471  0.75923979    -0.75800
O1791       O  0.79848287  0.77522376  0.67159847    -0.85300
O1792       O  0.81998682  0.73815547  0.67874445    -0.85000
O1793       O  0.81411655  0.80045594  0.59615659    -0.71800
O1794       O  0.83343979  0.76623156  0.60367381    -0.83900
Zr1795     Zr  0.79969965  0.72690988  0.53254987     2.26400
Zr1796     Zr  0.79050462  0.79042315  0.59497021     2.06300
Zr1797     Zr  0.83113182  0.72055962  0.60962216     2.10000
Zr1798     Zr  0.79639355  0.72951795  0.67673944     1.78800
O1799       O  0.84870512  0.70827161  0.55290529    -0.92700
O1800       O  0.77497108  0.74315388  0.71122485    -0.40500
O1801       O  0.80763719  0.71160550  0.60870783    -0.77200
O1802       O  0.78776245  0.74444245  0.60112098    -0.95800
O1803       O  0.80177571  0.77256173  0.52635113    -0.89200
O1804       O  0.82325415  0.73567314  0.53292761    -0.92000
C1805       C  0.80996621  0.75572809  0.77911462     1.01800
C1806       C  0.85461050  0.75875455  0.66707497     1.14700
C1807       C  0.80274640  0.84055480  0.66471559     1.05500
O1808       O  0.77009836  0.79790352  0.64159807    -0.94100
O1809       O  0.77161824  0.77778469  0.54425498    -0.89900
O1810       O  0.77682212  0.73884888  0.51104891    -0.83000
C1811       C  0.76890805  0.75797951  0.51818966     1.12100
O1812       O  0.84249557  0.81440210  0.54029762    -0.96100
Zr1813     Zr  0.82520719  0.78160530  0.52816065     1.88900
O1814       O  0.80595341  0.73599926  0.44874863    -0.72800
O1815       O  0.78604164  0.82449837  0.53667812    -0.52000
O1816       O  0.81849378  0.82196998  0.48993219    -0.96700
O1817       O  0.84664310  0.76985947  0.49145679    -0.53900
O1818       O  0.81922773  0.77167387  0.44603257    -0.73300
C1819       C  0.81242394  0.75370505  0.42603571     0.99100
O1820       O  0.78776954  0.69193550  0.49170528    -0.62100
O1821       O  0.83923815  0.68889984  0.66788910    -0.56900
O1822       O  0.80582007  0.68114802  0.53917536    -0.93600
O1823       O  0.82457989  0.67745578  0.58575487    -0.92000
O1824       O  0.80201689  0.68807165  0.71300209    -0.92400
O1825       O  0.77923454  0.69624674  0.66814410    -0.91200
C1826       C  0.81499456  0.66789036  0.56059559     1.17900
H1827       H  0.82417185  0.73158799  0.70767963     0.33800
H1828       H  0.77836325  0.73970112  0.60068448     0.44700
H1829       H  0.82773427  0.72706017  0.50654147     0.38200
H1830       H  0.81564939  0.81878964  0.59329465     0.34700
H1831       H  0.77407144  0.73303903  0.74134838     0.26500
H1832       H  0.77898426  0.83526512  0.55185785     0.32400
H1833       H  0.82351801  0.82252585  0.45910908     0.38300
H1834       H  0.81162605  0.68535127  0.70503936     0.32800
H1835       H  0.84820755  0.68367643  0.65581000     0.31700
H1836       H  0.85208618  0.69150634  0.56500027     0.33400
H1837       H  0.84452461  0.75579978  0.46850562     0.32300
H1838       H  0.78044011  0.68963154  0.63491446     0.36300
H1839       H  0.77927133  0.68944362  0.50977825     0.29100
H1840       H  0.83153385  0.81993980  0.74372848     0.33300
H1841       H  0.84520961  0.82008775  0.50762170     0.36100
H1842       H  0.84114952  0.69872118  0.69774355     0.28700
H1843       H  0.78499519  0.69898904  0.46002570     0.41600
H1844       H  0.76513290  0.78134437  0.64026694     0.31700
H1845       H  0.77648979  0.76108825  0.72229318     0.39300
H1846       H  0.85173557  0.76132761  0.51767993     0.31100
H1847       H  0.79421672  0.83542447  0.53713357     0.31200
H1848       H  0.83835410  0.82825512  0.69491696     0.31500
Zr1849     Zr  0.92685123  0.97384389  0.17338626     2.17500
O1850       O  0.91202118  0.94479284  0.21790769    -0.50900
O1851       O  0.93194168  0.98478642  0.25743780    -0.74100
O1852       O  0.93598285  0.93003917  0.18068975    -0.80900
O1853       O  0.89756422  0.02038004  0.14698461    -0.82600
O1854       O  0.95557337  0.92679846  0.13864110    -0.78200
O1855       O  0.90258041  0.98104054  0.17885051    -0.89900
O1856       O  0.94668537  0.01824287  0.26031054    -0.75800
O1857       O  0.95036423  0.98291503  0.17252404    -0.85300
O1858       O  0.92871897  0.01960879  0.17967044    -0.85000
O1859       O  0.93472535  0.95734141  0.09704998    -0.71800
O1860       O  0.91547390  0.99139886  0.10449932    -0.83900
Zr1861     Zr  0.94931930  0.03095890  0.03355175     2.26400
Zr1862     Zr  0.95832183  0.96749495  0.09606134     2.06300
Zr1863     Zr  0.91771155  0.03709035  0.10996433     2.10000
Zr1864     Zr  0.95223276  0.02868377  0.17785590     1.78800
O1865       O  0.89938674  0.04671772  0.05443613    -0.92700
O1866       O  0.97358979  0.01780266  0.21606681    -0.40500
O1867       O  0.94119261  0.04643379  0.10929128    -0.77200
O1868       O  0.96111197  0.01345743  0.10250429    -0.95800
O1869       O  0.94713937  0.98535093  0.02729737    -0.89200
O1870       O  0.92576036  0.02216792  0.03341550    -0.92000
C1871       C  0.93907222  0.00148170  0.28024067     1.01800
C1872       C  0.89437744  0.99935218  0.16827190     1.14700
C1873       C  0.94634617  0.91749572  0.16589986     1.05500
O1874       O  0.97871178  0.96103084  0.14324751    -0.94100
O1875       O  0.97702640  0.97923317  0.04386566    -0.89900
O1876       O  0.97228176  0.01893101  0.01308823    -0.83000
C1877       C  0.97995595  0.99931644  0.01890408     1.12100
O1878       O  0.90652664  0.94304426  0.03877678    -0.96100
Zr1879     Zr  0.92370064  0.97626581  0.02887070     1.88900
O1880       O  0.94313846  0.02176321  0.94969901    -0.72800
O1881       O  0.96225818  0.93205811  0.04004553    -0.52000
O1882       O  0.93087775  0.93600307  0.99151541    -0.96700
O1883       O  0.90199875  0.98770095  0.99364446    -0.53900
O1884       O  0.92938664  0.98674434  0.94670774    -0.73300
C1885       C  0.93648060  0.00435092  0.92688326     0.99100
O1886       O  0.96132127  0.06496785  0.99028162    -0.62100
O1887       O  0.90988204  0.06911941  0.16806784    -0.56900
O1888       O  0.94328821  0.07674474  0.04256404    -0.93600
O1889       O  0.92345914  0.08012235  0.08322004    -0.92000
O1890       O  0.94479668  0.06986516  0.21091441    -0.92400
O1891       O  0.96915015  0.06251419  0.17098848    -0.91200
C1892       C  0.93357517  0.08986383  0.06113154     1.17900
H1893       H  0.92450532  0.02602949  0.20860444     0.33800
H1894       H  0.97052423  0.01808633  0.10223900     0.44700
H1895       H  0.92128598  0.03078629  0.00700510     0.38200
H1896       H  0.93323198  0.93901334  0.09416167     0.34700
H1897       H  0.97376494  0.02806218  0.24620271     0.26500
H1898       H  0.96945416  0.92160899  0.05517436     0.32400
H1899       H  0.92639320  0.93569800  0.95963168     0.38300
H1900       H  0.94734452  0.06932600  0.24541798     0.32800
H1901       H  0.90075316  0.07392630  0.15693697     0.31700
H1902       H  0.89454607  0.06137251  0.06938130     0.33400
H1903       H  0.90397420  0.00126905  0.96952941     0.32300
H1904       H  0.96760822  0.07012980  0.13870344     0.36300
H1905       H  0.96959239  0.06834896  0.00919201     0.29100
H1906       H  0.91734057  0.93864629  0.24583051     0.33300
H1907       H  0.90406341  0.93750701  0.00575120     0.36100
H1908       H  0.90833867  0.05957165  0.19849479     0.28700
H1909       H  0.96450807  0.05702017  0.95985805     0.41600
H1910       H  0.98380470  0.97736125  0.13988130     0.31700
H1911       H  0.97249757  0.99973854  0.22704382     0.39300
H1912       H  0.89713736  0.99679700  0.01975778     0.31100
H1913       H  0.95409732  0.92114306  0.04221962     0.31200
H1914       H  0.91077465  0.92940625  0.19717547     0.31500
Zr1915     Zr  0.92694127  0.97348329  0.67320706     2.17500
O1916       O  0.91208360  0.94367416  0.71598933    -0.50900
O1917       O  0.93163523  0.98505773  0.75722783    -0.74100
O1918       O  0.93635133  0.92992425  0.68179194    -0.80900
O1919       O  0.89754631  0.01957909  0.64604666    -0.82600
O1920       O  0.95567370  0.92631777  0.63826596    -0.78200
O1921       O  0.90269297  0.98059473  0.67922501    -0.89900
O1922       O  0.94679275  0.01786632  0.76025613    -0.75800
O1923       O  0.95046767  0.98236854  0.67262133    -0.85300
O1924       O  0.92888722  0.01927887  0.67937727    -0.85000
O1925       O  0.93489988  0.95693534  0.59694060    -0.71800
O1926       O  0.91558209  0.99123404  0.60443011    -0.83900
Zr1927     Zr  0.94933588  0.03067499  0.53386393     2.26400
Zr1928     Zr  0.95849298  0.96716659  0.59612731     2.06300
Zr1929     Zr  0.91778990  0.03695344  0.61017955     2.10000
Zr1930     Zr  0.95243951  0.02808763  0.67782700     1.78800
O1931       O  0.89950736  0.04879913  0.55595200    -0.92700
O1932       O  0.97377679  0.01522879  0.71389261    -0.40500
O1933       O  0.94127398  0.04627379  0.60970950    -0.77200
O1934       O  0.96118249  0.01307386  0.60248787    -0.95800
O1935       O  0.94720363  0.98504412  0.52760424    -0.89200
O1936       O  0.92579803  0.02184844  0.53371400    -0.92000
C1937       C  0.93888097  0.00156426  0.78006847     1.01800
C1938       C  0.89442229  0.99868232  0.66802712     1.14700
C1939       C  0.94660451  0.91721365  0.66646476     1.05500
O1940       O  0.97881041  0.96228029  0.64440798    -0.94100
O1941       O  0.97704480  0.97915646  0.54362098    -0.89900
O1942       O  0.97247572  0.01941998  0.51513664    -0.83000
C1943       C  0.98005042  0.99959566  0.51984720     1.12100
O1944       O  0.90618229  0.94388091  0.54208796    -0.96100
Zr1945     Zr  0.92378094  0.97592223  0.52898219     1.88900
O1946       O  0.94321392  0.02131345  0.45011097    -0.72800
O1947       O  0.96368177  0.93253031  0.53964113    -0.52000
O1948       O  0.92990184  0.93502016  0.49139057    -0.96700
O1949       O  0.90253455  0.98881992  0.49205944    -0.53900
O1950       O  0.93002547  0.98553410  0.44697070    -0.73300
C1951       C  0.93689285  0.00349174  0.42721917     0.99100
O1952       O  0.96094248  0.06419177  0.48779189    -0.62100
O1953       O  0.91059295  0.06834976  0.67048243    -0.56900
O1954       O  0.94343157  0.07642233  0.54257180    -0.93600
O1955       O  0.92355796  0.07993260  0.58280171    -0.92000
O1956       O  0.94627892  0.06889114  0.71548035    -0.92400
O1957       O  0.96986613  0.06061189  0.66648106    -0.91200
C1958       C  0.93369164  0.08960000  0.56067502     1.17900
H1959       H  0.92468188  0.02578555  0.70830662     0.33800
H1960       H  0.97058355  0.01776596  0.60251439     0.44700
H1961       H  0.92134829  0.03052005  0.50736131     0.38200
H1962       H  0.93343188  0.93858468  0.59421373     0.34700
H1963       H  0.97514720  0.02739166  0.74099580     0.26500
H1964       H  0.97076219  0.92219687  0.55572119     0.32400
H1965       H  0.92572157  0.93544434  0.45898196     0.38300
H1966       H  0.95237737  0.07050052  0.74357452     0.32800
H1967       H  0.90238038  0.07630137  0.65678872     0.31700
H1968       H  0.89549807  0.06447508  0.57045019     0.33400
H1969       H  0.90485390  0.00263549  0.46883819     0.32300
H1970       H  0.96746781  0.06919938  0.63575398     0.36300
H1971       H  0.96892661  0.06900972  0.50719060     0.29100
H1972       H  0.91736236  0.93696704  0.74356826     0.33300
H1973       H  0.90314529  0.93861243  0.50953338     0.36100
H1974       H  0.90730902  0.05811196  0.69823950     0.28700
H1975       H  0.96463864  0.05556325  0.45878144     0.41600
H1976       H  0.98308433  0.97954639  0.64405665     0.31700
H1977       H  0.97191178  0.99845284  0.72963707     0.39300
H1978       H  0.89758077  0.99776396  0.51813634     0.31100
H1979       H  0.95561938  0.92129347  0.53975428     0.31200
H1980       H  0.91080053  0.92869648  0.69426110     0.31500
Zr1981     Zr  0.82237306  0.97396146  0.19530584     2.17500
O1982       O  0.83788657  0.94428505  0.15546287    -0.50900
O1983       O  0.81750384  0.98534026  0.11133193    -0.74100
O1984       O  0.81335587  0.93020425  0.18595509    -0.80900
O1985       O  0.85147789  0.02087393  0.22168699    -0.82600
O1986       O  0.79414699  0.92601003  0.22990535    -0.78200
O1987       O  0.84651310  0.98172577  0.18884295    -0.89900
O1988       O  0.80187477  0.01732097  0.10854049    -0.75800
O1989       O  0.79878636  0.98222849  0.19603702    -0.85300
O1990       O  0.82012879  0.01966689  0.18885017    -0.85000
O1991       O  0.81455295  0.95721416  0.27148605    -0.71800
O1992       O  0.83361159  0.99201016  0.26398346    -0.83900
Zr1993     Zr  0.79959403  0.03019536  0.33515111     2.26400
Zr1994     Zr  0.79085713  0.96664603  0.27234144     2.06300
Zr1995     Zr  0.83111521  0.03761670  0.25804275     2.10000
Zr1996     Zr  0.79651480  0.02789584  0.19104135     1.78800
O1997       O  0.84962075  0.04971358  0.31104968    -0.92700
O1998       O  0.77513645  0.01544244  0.15477789    -0.40500
O1999       O  0.80754959  0.04597193  0.25933727    -0.77200
O2000       O  0.78780110  0.01250170  0.26639524    -0.95800
O2001       O  0.80204250  0.98459747  0.34122317    -0.89200
O2002       O  0.82324091  0.02224390  0.33458166    -0.92000
C2003       C  0.80996829  0.00140499  0.08860383     1.01800
C2004       C  0.85469796  0.99994725  0.19995500     1.14700
C2005       C  0.80322087  0.91721598  0.20141839     1.05500
O2006       O  0.77089258  0.96006123  0.22286143    -0.94100
O2007       O  0.77191619  0.97820314  0.32368974    -0.89900
O2008       O  0.77675137  0.01741075  0.35644649    -0.83000
C2009       C  0.76902377  0.99792365  0.34971558     1.12100
O2010       O  0.84390706  0.94575411  0.32757946    -0.96100
Zr2011     Zr  0.82557571  0.97639708  0.33944887     1.88900
O2012       O  0.80628545  0.02185987  0.41874457    -0.72800
O2013       O  0.78568165  0.93151765  0.32768525    -0.52000
O2014       O  0.81942361  0.93469666  0.37356571    -0.96700
O2015       O  0.84673389  0.98879546  0.37773260    -0.53900
O2016       O  0.81943743  0.98603688  0.42165419    -0.73300
C2017       C  0.81271282  0.00415282  0.44155933     0.99100
O2018       O  0.78756044  0.06410823  0.37856534    -0.62100
O2019       O  0.83777419  0.06939363  0.19762702    -0.56900
O2020       O  0.80504093  0.07617611  0.32636758    -0.93600
O2021       O  0.82488409  0.08027487  0.28602357    -0.92000
O2022       O  0.80320934  0.06871404  0.15468204    -0.92400
O2023       O  0.77962333  0.06158909  0.20066788    -0.91200
C2024       C  0.81466672  0.08963129  0.30812891     1.17900
H2025       H  0.82425053  0.02624237  0.15983939     0.33800
H2026       H  0.77836264  0.01693195  0.26682966     0.44700
H2027       H  0.82768504  0.03103552  0.36083999     0.38200
H2028       H  0.81617483  0.93889265  0.27400869     0.34700
H2029       H  0.77428087  0.02652259  0.12584250     0.26500
H2030       H  0.77911154  0.92058790  0.31022830     0.32400
H2031       H  0.82322760  0.93477463  0.40656563     0.38300
H2032       H  0.79838435  0.06931160  0.12345512     0.32800
H2033       H  0.84580470  0.07797001  0.21140934     0.31700
H2034       H  0.85404129  0.06441645  0.29463736     0.33400
H2035       H  0.84451336  0.00353116  0.39900657     0.32300
H2036       H  0.77910449  0.06450778  0.23591576     0.36300
H2037       H  0.77927404  0.06742154  0.35970994     0.29100
H2038       H  0.83296381  0.93721719  0.12736372     0.33300
H2039       H  0.84601892  0.93881132  0.35997967     0.36100
H2040       H  0.84130112  0.05932789  0.17003486     0.28700
H2041       H  0.78439903  0.05612854  0.40899225     0.41600
H2042       H  0.76580182  0.97642970  0.22538178     0.31700
H2043       H  0.77669548  0.99790459  0.14173345     0.39300
H2044       H  0.85215317  0.99646522  0.35140965     0.31100
H2045       H  0.79400120  0.92102928  0.32900448     0.31200
H2046       H  0.83902916  0.92953084  0.17782264     0.31500
Zr2047     Zr  0.82224899  0.97361088  0.69561006     2.17500
O2048       O  0.83753785  0.94371922  0.65524952    -0.50900
O2049       O  0.81768011  0.98537341  0.61146366    -0.74100
O2050       O  0.81302353  0.92993779  0.68651901    -0.80900
O2051       O  0.85164391  0.01955494  0.72339025    -0.82600
O2052       O  0.79373196  0.92598809  0.73011099    -0.78200
O2053       O  0.84646445  0.98091390  0.68892828    -0.89900
O2054       O  0.80265814  0.01840109  0.60839022    -0.75800
O2055       O  0.79865840  0.98198829  0.69604014    -0.85300
O2056       O  0.82017182  0.01939993  0.68949898    -0.85000
O2057       O  0.81428074  0.95698883  0.77188449    -0.71800
O2058       O  0.83357940  0.99131812  0.76444664    -0.83900
Zr2059     Zr  0.79962287  0.03024195  0.83479017     2.26400
Zr2060     Zr  0.79061442  0.96672529  0.77251578     2.06300
Zr2061     Zr  0.83129336  0.03695353  0.75875014     2.10000
Zr2062     Zr  0.79652811  0.02765430  0.69081004     1.78800
O2063       O  0.84906241  0.04885193  0.81505151    -0.92700
O2064       O  0.77555491  0.01260392  0.65482780    -0.40500
O2065       O  0.80775759  0.04567131  0.75892976    -0.77200
O2066       O  0.78777010  0.01260965  0.76610844    -0.95800
O2067       O  0.80187275  0.98461181  0.84124067    -0.89200
O2068       O  0.82321461  0.02183545  0.83515166    -0.92000
C2069       C  0.81055205  0.00206228  0.58857717     1.01800
C2070       C  0.85476158  0.99883029  0.70081290     1.14700
C2071       C  0.80283350  0.91704438  0.70186525     1.05500
O2072       O  0.77042202  0.96013670  0.72428337    -0.94100
O2073       O  0.77163700  0.97924751  0.82307710    -0.89900
O2074       O  0.77651521  0.01877743  0.85435516    -0.83000
C2075       C  0.76871549  0.99938559  0.84794965     1.12100
O2076       O  0.84291402  0.94384589  0.82666007    -0.96100
Zr2077     Zr  0.82538384  0.97599977  0.83992523     1.88900
O2078       O  0.80562738  0.02106451  0.91871006    -0.72800
O2079       O  0.78548043  0.93179806  0.82839215    -0.52000
O2080       O  0.81908671  0.93587204  0.87976104    -0.96700
O2081       O  0.84697882  0.98783677  0.87557921    -0.53900
O2082       O  0.81971124  0.98657494  0.92213314    -0.73300
C2083       C  0.81241263  0.00394856  0.94174775     0.99100
O2084       O  0.78799483  0.06427772  0.87925292    -0.62100
O2085       O  0.83913197  0.06817403  0.69914302    -0.56900
O2086       O  0.80547889  0.07605506  0.82600361    -0.93600
O2087       O  0.82513540  0.07998651  0.78448649    -0.92000
O2088       O  0.80086221  0.06922004  0.65295338    -0.92400
O2089       O  0.77920827  0.06037102  0.70228011    -0.91200
C2090       C  0.81502406  0.08943125  0.80703738     1.17900
H2091       H  0.82439005  0.02602650  0.66069172     0.33800
H2092       H  0.77835928  0.01724406  0.76609461     0.44700
H2093       H  0.82761793  0.03051401  0.86165487     0.38200
H2094       H  0.81581317  0.93864469  0.77453625     0.34700
H2095       H  0.77389205  0.02455247  0.62760483     0.26500
H2096       H  0.77758686  0.92297814  0.81409511     0.32400
H2097       H  0.80949629  0.93816826  0.88842456     0.38300
H2098       H  0.80955999  0.07491208  0.66676891     0.32800
H2099       H  0.84748472  0.07545818  0.71306670     0.31700
H2100       H  0.85233617  0.06580864  0.80350600     0.33400
H2101       H  0.84493304  0.00165046  0.89912850     0.32300
H2102       H  0.78023416  0.06589433  0.73628105     0.36300
H2103       H  0.77992859  0.06857350  0.85987072     0.29100
H2104       H  0.83258122  0.93707308  0.62686809     0.33300
H2105       H  0.84465465  0.93598066  0.85859718     0.36100
H2106       H  0.84222667  0.05787869  0.67117957     0.28700
H2107       H  0.78443464  0.05603693  0.90886429     0.41600
H2108       H  0.76563804  0.97688789  0.72536986     0.31700
H2109       H  0.77783341  0.99598124  0.63921833     0.39300
H2110       H  0.85191147  0.99669328  0.84933914     0.31100
H2111       H  0.79296606  0.91933800  0.82476145     0.31200
H2112       H  0.83851733  0.92873607  0.67716720     0.31500
Zr2113     Zr  0.19977735  0.97663385  0.16126957     2.17500
O2114       O  0.21434334  0.94683699  0.11720536    -0.50900
O2115       O  0.19365032  0.98596319  0.07700252    -0.74100
O2116       O  0.19207859  0.93118283  0.16236270    -0.80900
O2117       O  0.22841834  0.02588009  0.18088708    -0.82600
O2118       O  0.17261620  0.92824830  0.20525227    -0.78200
O2119       O  0.22342048  0.98644555  0.14913237    -0.89900
O2120       O  0.17988058  0.02091240  0.07343723    -0.75800
O2121       O  0.17635583  0.98596710  0.16080139    -0.85300
O2122       O  0.19794409  0.02249393  0.15447217    -0.85000
O2123       O  0.19214873  0.96133272  0.23859887    -0.71800
O2124       O  0.21129953  0.99525299  0.22970679    -0.83900
Zr2125     Zr  0.17645569  0.03355774  0.30009704     2.26400
Zr2126     Zr  0.16851471  0.97070490  0.23749155     2.06300
Zr2127     Zr  0.20858206  0.04098116  0.22381674     2.10000
Zr2128     Zr  0.17459184  0.03192816  0.15529272     1.78800
O2129       O  0.22836207  0.05065109  0.27239391    -0.92700
O2130       O  0.15329891  0.02041827  0.11729764    -0.40500
O2131       O  0.18500228  0.05032016  0.22500272    -0.77200
O2132       O  0.16559208  0.01645789  0.22920401    -0.95800
O2133       O  0.17934266  0.98823946  0.30734426    -0.89200
O2134       O  0.20016456  0.02598118  0.29975862    -0.92000
C2135       C  0.18683249  0.00308048  0.05388822     1.01800
C2136       C  0.23142903  0.00532143  0.15742397     1.14700
C2137       C  0.18227198  0.91833360  0.18111762     1.05500
O2138       O  0.14975515  0.95863259  0.18572323    -0.94100
O2139       O  0.14814690  0.98422330  0.27702963    -0.89900
O2140       O  0.15242003  0.02343387  0.31076907    -0.83000
C2141       C  0.14454865  0.00466728  0.29933523     1.12100
O2142       O  0.22164478  0.95043787  0.29487142    -0.96100
Zr2143     Zr  0.20303258  0.98058128  0.30593749     1.88900
O2144       O  0.18113340  0.02200437  0.38436296    -0.72800
O2145       O  0.16267400  0.94008022  0.30072514    -0.52000
O2146       O  0.19722463  0.93900905  0.34168113    -0.96700
O2147       O  0.22356117  0.99439960  0.34703460    -0.53900
O2148       O  0.19658294  0.98974195  0.38755079    -0.73300
C2149       C  0.18851548  0.00570399  0.40723153     0.99100
O2150       O  0.16404396  0.06790709  0.34069570    -0.62100
O2151       O  0.21328682  0.07467487  0.16476684    -0.56900
O2152       O  0.18470536  0.07771682  0.30592250    -0.93600
O2153       O  0.20416447  0.08207283  0.26318068    -0.92000
O2154       O  0.18212826  0.07245373  0.11975423    -0.92400
O2155       O  0.15744206  0.06530803  0.16239695    -0.91200
C2156       C  0.19478235  0.09082462  0.29046629     1.17900
H2157       H  0.20220556  0.02865574  0.12535654     0.33800
H2158       H  0.15626363  0.02128349  0.22628907     0.44700
H2159       H  0.20437497  0.03509829  0.32615248     0.38200
H2160       H  0.19404218  0.94333545  0.24418839     0.34700
H2161       H  0.15311803  0.03033851  0.08676545     0.26500
H2162       H  0.15580873  0.92868575  0.28597479     0.32400
H2163       H  0.20121739  0.93933171  0.37439826     0.38300
H2164       H  0.17662527  0.07450562  0.09022229     0.32800
H2165       H  0.22107653  0.08418258  0.17819754     0.31700
H2166       H  0.23256290  0.06569625  0.25632092     0.33400
H2167       H  0.22417085  0.98323961  0.37594064     0.32300
H2168       H  0.15704795  0.06922841  0.19732114     0.36300
H2169       H  0.15638141  0.07216619  0.31925181     0.29100
H2170       H  0.20856097  0.93839877  0.09276298     0.33300
H2171       H  0.22339801  0.94279099  0.32698875     0.36100
H2172       H  0.21695853  0.06562830  0.13620358     0.28700
H2173       H  0.15993185  0.05980973  0.36947540     0.41600
H2174       H  0.14487175  0.97498328  0.17978399     0.31700
H2175       H  0.15444719  0.00225635  0.10701529     0.39300
H2176       H  0.22164745  0.01175973  0.36021986     0.31100
H2177       H  0.17073508  0.92901506  0.30427796     0.31200
H2178       H  0.21677497  0.93298453  0.14025551     0.31500
Zr2179     Zr  0.19987563  0.97660739  0.66191696     2.17500
O2180       O  0.21395417  0.94707993  0.61528969    -0.50900
O2181       O  0.19434348  0.98642325  0.57737947    -0.74100
O2182       O  0.19222808  0.93108008  0.66416617    -0.80900
O2183       O  0.22830881  0.02595797  0.68022006    -0.82600
O2184       O  0.17261479  0.92830512  0.70627984    -0.78200
O2185       O  0.22366705  0.98559714  0.65204709    -0.89900
O2186       O  0.17990702  0.02031502  0.57325514    -0.75800
O2187       O  0.17641012  0.98553744  0.66125464    -0.85300
O2188       O  0.19789742  0.02244716  0.65409992    -0.85000
O2189       O  0.19220019  0.96160560  0.73940246    -0.71800
O2190       O  0.21142067  0.99572457  0.72982129    -0.83900
Zr2191     Zr  0.17656049  0.03413160  0.79953524     2.26400
Zr2192     Zr  0.16858475  0.97085456  0.73841989     2.06300
Zr2193     Zr  0.20853566  0.04135710  0.72303378     2.10000
Zr2194     Zr  0.17447263  0.03140892  0.65473300     1.78800
O2195       O  0.22825249  0.05207001  0.77125868    -0.92700
O2196       O  0.15330742  0.01763581  0.61835680    -0.40500
O2197       O  0.18492914  0.05037946  0.72388851    -0.77200
O2198       O  0.16564054  0.01657348  0.72918965    -0.95800
O2199       O  0.17948542  0.98887398  0.80755329    -0.89200
O2200       O  0.20027720  0.02663253  0.79935303    -0.92000
C2201       C  0.18729857  0.00308398  0.55401821     1.01800
C2202       C  0.23150622  0.00491250  0.65868817     1.14700
C2203       C  0.18233788  0.91829438  0.68257626     1.05500
O2204       O  0.14959456  0.95750630  0.68887983    -0.94100
O2205       O  0.14820845  0.98499203  0.77732075    -0.89900
O2206       O  0.15258394  0.02419978  0.81104208    -0.83000
C2207       C  0.14467963  0.00547625  0.79971032     1.12100
O2208       O  0.22053077  0.94882653  0.79182762    -0.96100
Zr2209     Zr  0.20316553  0.98123216  0.80609691     1.88900
O2210       O  0.18061509  0.02166107  0.88384699    -0.72800
O2211       O  0.16379448  0.94110559  0.80421671    -0.52000
O2212       O  0.19743017  0.94073943  0.84596764    -0.96700
O2213       O  0.22420145  0.99453733  0.84419419    -0.53900
O2214       O  0.19702492  0.99117097  0.88774634    -0.73300
C2215       C  0.18835257  0.00608910  0.90705009     0.99100
O2216       O  0.16415433  0.07005335  0.83512675    -0.62100
O2217       O  0.21304795  0.07532839  0.66443717    -0.56900
O2218       O  0.18530965  0.07787002  0.80711608    -0.93600
O2219       O  0.20419518  0.08260676  0.76140893    -0.92000
O2220       O  0.18110791  0.07197523  0.61719635    -0.92400
O2221       O  0.15718559  0.06467999  0.65896071    -0.91200
C2222       C  0.19515896  0.09112786  0.79029434     1.17900
H2223       H  0.20216255  0.02860436  0.62500877     0.33800
H2224       H  0.15631671  0.02143973  0.72629324     0.44700
H2225       H  0.20451620  0.03580606  0.82561410     0.38200
H2226       H  0.19407566  0.94364721  0.74545818     0.34700
H2227       H  0.15220772  0.02878215  0.58959707     0.26500
H2228       H  0.15649054  0.92990883  0.79185464     0.32400
H2229       H  0.20237196  0.94107625  0.87697912     0.38300
H2230       H  0.17636565  0.07222366  0.58577923     0.32800
H2231       H  0.22044796  0.08554851  0.67885418     0.31700
H2232       H  0.23132109  0.06897173  0.75871142     0.33400
H2233       H  0.22484052  0.98384526  0.87370457     0.32300
H2234       H  0.15610990  0.06822190  0.69383196     0.36300
H2235       H  0.15639749  0.07321544  0.81344959     0.29100
H2236       H  0.20786409  0.93838795  0.59215202     0.33300
H2237       H  0.22370824  0.94335836  0.82408471     0.36100
H2238       H  0.21724260  0.06652742  0.63655211     0.28700
H2239       H  0.16018293  0.06322785  0.86526926     0.41600
H2240       H  0.14549608  0.97386602  0.67772166     0.31700
H2241       H  0.15517557  0.00030429  0.60491806     0.39300
H2242       H  0.22261204  0.01221946  0.85640465     0.31100
H2243       H  0.17177042  0.92968729  0.80584137     0.31200
H2244       H  0.21683630  0.93337894  0.63798068     0.31500
Zr2245     Zr  0.04890787  0.97630032  0.45694539     2.17500
O2246       O  0.03403792  0.94639718  0.49945128    -0.50900
O2247       O  0.05460509  0.98598523  0.54156127    -0.74100
O2248       O  0.05661645  0.93083009  0.45551428    -0.80900
O2249       O  0.02031402  0.02543223  0.43686713    -0.82600
O2250       O  0.07607782  0.92788001  0.41252600    -0.78200
O2251       O  0.02528938  0.98607191  0.46899570    -0.89900
O2252       O  0.06905592  0.01991696  0.54501760    -0.75800
O2253       O  0.07237460  0.98537717  0.45754688    -0.85300
O2254       O  0.05076466  0.02218756  0.46365794    -0.85000
O2255       O  0.05661850  0.96108078  0.37969631    -0.71800
O2256       O  0.03741174  0.99496166  0.38848808    -0.83900
Zr2257     Zr  0.07233810  0.03327427  0.31838802     2.26400
Zr2258     Zr  0.08025744  0.97033035  0.38066577     2.06300
Zr2259     Zr  0.04017785  0.04068950  0.39413970     2.10000
Zr2260     Zr  0.07415739  0.03131927  0.46315687     1.78800
O2261       O  0.02063898  0.05046529  0.34439178    -0.92700
O2262       O  0.09567292  0.01998157  0.49970884    -0.40500
O2263       O  0.06376132  0.04980521  0.39348326    -0.77200
O2264       O  0.08320321  0.01606125  0.38918338    -0.95800
O2265       O  0.06942778  0.98794017  0.31095788    -0.89200
O2266       O  0.04862485  0.02564402  0.31829197    -0.92000
C2267       C  0.06168894  0.00273532  0.56466139     1.01800
C2268       C  0.01729802  0.00493380  0.46053792     1.14700
C2269       C  0.06638164  0.91797898  0.43646355     1.05500
O2270       O  0.09916689  0.95830858  0.43177427    -0.94100
O2271       O  0.10063320  0.98370601  0.34096568    -0.89900
O2272       O  0.09635099  0.02302586  0.30771281    -0.83000
C2273       C  0.10422815  0.00425000  0.31895033     1.12100
O2274       O  0.02857876  0.94712916  0.32503746    -0.96100
Zr2275     Zr  0.04573293  0.98019234  0.31248091     1.88900
O2276       O  0.06783577  0.02121432  0.23431277    -0.72800
O2277       O  0.08574614  0.93975935  0.31688490    -0.52000
O2278       O  0.05194352  0.93945326  0.27447451    -0.96700
O2279       O  0.02449357  0.99288081  0.27501124    -0.53900
O2280       O  0.05168853  0.99018739  0.23077506    -0.73300
C2281       C  0.06015712  0.00546980  0.21132015     0.99100
O2282       O  0.08490205  0.06782983  0.27898054    -0.62100
O2283       O  0.03569567  0.07490871  0.45231055    -0.56900
O2284       O  0.06404384  0.07753882  0.31243595    -0.93600
O2285       O  0.04451465  0.08182677  0.35473768    -0.92000
O2286       O  0.06679177  0.07131091  0.50100621    -0.92400
O2287       O  0.09063249  0.06585484  0.45537597    -0.91200
C2288       C  0.05392023  0.09064764  0.32762156     1.17900
H2289       H  0.04650127  0.02843010  0.49267987     0.33800
H2290       H  0.09252689  0.02090705  0.39213996     0.44700
H2291       H  0.04442604  0.03464793  0.29179428     0.38200
H2292       H  0.05469430  0.94312756  0.37390030     0.34700
H2293       H  0.09642113  0.03130786  0.52837668     0.26500
H2294       H  0.09275054  0.92844783  0.33097644     0.32400
H2295       H  0.04681282  0.93896412  0.24387133     0.38300
H2296       H  0.07121230  0.07143425  0.53301456     0.32800
H2297       H  0.02854380  0.08548900  0.43723794     0.31700
H2298       H  0.01649943  0.06576995  0.35978715     0.33400
H2299       H  0.02448969  0.98422753  0.24316675     0.32300
H2300       H  0.08872049  0.07365098  0.42349689     0.36300
H2301       H  0.09274207  0.07143261  0.30002872     0.29100
H2302       H  0.03969018  0.93759066  0.52381495     0.33300
H2303       H  0.02499486  0.94288387  0.29267604     0.36100
H2304       H  0.03119428  0.06633583  0.47983536     0.28700
H2305       H  0.08874263  0.06006718  0.24941356     0.41600
H2306       H  0.10383111  0.97478955  0.43871070     0.31700
H2307       H  0.09429883  0.00250061  0.51323409     0.39300
H2308       H  0.02540524  0.01144253  0.26731800     0.31100
H2309       H  0.07770260  0.92858098  0.31401364     0.31200
H2310       H  0.03160308  0.93283963  0.47579275     0.31500
Zr2311     Zr  0.04909684  0.97629575  0.95712196     2.17500
O2312       O  0.03454060  0.94755219  0.00345705    -0.50900
O2313       O  0.05489111  0.98569147  0.04147684    -0.74100
O2314       O  0.05661198  0.93078091  0.95532389    -0.80900
O2315       O  0.02062191  0.02569554  0.93905511    -0.82600
O2316       O  0.07658041  0.92819295  0.91532621    -0.78200
O2317       O  0.02533817  0.98552870  0.96788625    -0.89900
O2318       O  0.06932509  0.01961970  0.04552119    -0.75800
O2319       O  0.07254340  0.98548206  0.95826266    -0.85300
O2320       O  0.05097767  0.02211275  0.96437627    -0.85000
O2321       O  0.05699104  0.96105664  0.88005467    -0.71800
O2322       O  0.03758038  0.99495710  0.88879853    -0.83900
Zr2323     Zr  0.07251099  0.03355497  0.81938373     2.26400
Zr2324     Zr  0.08060595  0.97049826  0.88162565     2.06300
Zr2325     Zr  0.04031997  0.04067274  0.89510141     2.10000
Zr2326     Zr  0.07435544  0.03140244  0.96396696     1.78800
O2327       O  0.02058240  0.04996263  0.84596964    -0.92700
O2328       O  0.09597921  0.01904607  0.99855181    -0.40500
O2329       O  0.06389777  0.04994797  0.89451524    -0.77200
O2330       O  0.08345742  0.01631777  0.89004501    -0.95800
O2331       O  0.06977664  0.98818066  0.81189345    -0.89200
O2332       O  0.04883214  0.02575852  0.81928890    -0.92000
C2333       C  0.06196484  0.00232166  0.06477456     1.01800
C2334       C  0.01745534  0.00475214  0.96101557     1.14700
C2335       C  0.06665388  0.91808516  0.93784361     1.05500
O2336       O  0.09979077  0.95875146  0.93170193    -0.94100
O2337       O  0.10088904  0.98439777  0.84166328    -0.89900
O2338       O  0.09653069  0.02378522  0.80877540    -0.83000
C2339       C  0.10443538  0.00503870  0.81982268     1.12100
O2340       O  0.02865159  0.94786273  0.82598374    -0.96100
Zr2341     Zr  0.04608823  0.98032523  0.81292800     1.88900
O2342       O  0.06785693  0.02203495  0.73489046    -0.72800
O2343       O  0.08590632  0.93946716  0.81841954    -0.52000
O2344       O  0.05193903  0.93958199  0.77429328    -0.96700
O2345       O  0.02520160  0.99394324  0.77416421    -0.53900
O2346       O  0.05218433  0.99014782  0.73124794    -0.73300
C2347       C  0.06037414  0.00596263  0.71175069     0.99100
O2348       O  0.08473436  0.06833751  0.77932045    -0.62100
O2349       O  0.03563977  0.07501600  0.95274603    -0.56900
O2350       O  0.06443920  0.07793996  0.81537858    -0.93600
O2351       O  0.04453074  0.08178434  0.85548036    -0.92000
O2352       O  0.06689843  0.07146749  0.00146971    -0.92400
O2353       O  0.09071746  0.06629727  0.95899710    -0.91200
C2354       C  0.05414393  0.09083164  0.82957925     1.17900
H2355       H  0.04671893  0.02820931  0.99350976     0.33800
H2356       H  0.09275868  0.02128171  0.89315224     0.44700
H2357       H  0.04461114  0.03481992  0.79285378     0.38200
H2358       H  0.05518038  0.94306376  0.87405319     0.34700
H2359       H  0.09692239  0.02983691  0.02784430     0.26500
H2360       H  0.09364148  0.92953331  0.83116754     0.32400
H2361       H  0.04687536  0.93950886  0.74352970     0.38300
H2362       H  0.07062261  0.07102232  0.03458190     0.32800
H2363       H  0.02729658  0.08321907  0.94066126     0.31700
H2364       H  0.01519092  0.06215569  0.86553365     0.33400
H2365       H  0.02403314  0.98194255  0.74669034     0.32300
H2366       H  0.08926007  0.07392495  0.92667068     0.36300
H2367       H  0.09242903  0.07253997  0.80067566     0.29100
H2368       H  0.04044254  0.93914705  0.02754855     0.33300
H2369       H  0.02559127  0.94239855  0.79357426     0.36100
H2370       H  0.03284887  0.06617062  0.98276284     0.28700
H2371       H  0.08881837  0.06047844  0.75027598     0.41600
H2372       H  0.10484579  0.97504425  0.93628067     0.31700
H2373       H  0.09457986  0.00135046  0.01106285     0.39300
H2374       H  0.02722157  0.01072259  0.75873057     0.31100
H2375       H  0.07831288  0.92708581  0.81856856     0.31200
H2376       H  0.03184720  0.93357389  0.98106126     0.31500
Zr2377     Zr  0.04929028  0.28136004  0.15984778     2.17500
O2378       O  0.03445915  0.31104257  0.11666944    -0.50900
O2379       O  0.05537212  0.27272615  0.07543442    -0.74100
O2380       O  0.05678796  0.32689681  0.16248913    -0.80900
O2381       O  0.02072933  0.23191945  0.17798275    -0.82600
O2382       O  0.07648852  0.32947948  0.20414776    -0.78200
O2383       O  0.02571625  0.27135518  0.14622492    -0.89900
O2384       O  0.06909110  0.23772884  0.07163613    -0.75800
O2385       O  0.07275087  0.27202249  0.15874518    -0.85300
O2386       O  0.05107516  0.23547569  0.15274720    -0.85000
O2387       O  0.05706275  0.29636615  0.23727052    -0.71800
O2388       O  0.03776044  0.26257197  0.22801454    -0.83900
Zr2389     Zr  0.07255296  0.22396005  0.29844172     2.26400
Zr2390     Zr  0.08069141  0.28684385  0.23572250     2.06300
Zr2391     Zr  0.04045896  0.21685841  0.22205615     2.10000
Zr2392     Zr  0.07443299  0.22604601  0.15313598     1.78800
O2393       O  0.02077358  0.20829676  0.27178239    -0.92700
O2394       O  0.09596049  0.23742275  0.11660524    -0.40500
O2395       O  0.06405124  0.20756114  0.22296139    -0.77200
O2396       O  0.08340939  0.24103350  0.22743005    -0.95800
O2397       O  0.06979914  0.26930626  0.30546963    -0.89200
O2398       O  0.04885938  0.23162413  0.29825457    -0.92000
C2399       C  0.06215172  0.25561250  0.05222481     1.01800
C2400       C  0.01770735  0.25245379  0.15438166     1.14700
C2401       C  0.06666911  0.33960235  0.18111678     1.05500
O2402       O  0.09980636  0.29815718  0.18493199    -0.94100
O2403       O  0.10097088  0.27290536  0.27528135    -0.89900
O2404       O  0.09656431  0.23380294  0.30917734    -0.83000
C2405       C  0.10448180  0.25245088  0.29770026     1.12100
O2406       O  0.02841392  0.30903041  0.29163102    -0.96100
Zr2407     Zr  0.04610829  0.27707957  0.30416526     1.88900
O2408       O  0.06812479  0.23637619  0.38280007    -0.72800
O2409       O  0.08691941  0.31724199  0.29897175    -0.52000
O2410       O  0.05264062  0.31762404  0.34222828    -0.96700
O2411       O  0.02480007  0.26462356  0.34132013    -0.53900
O2412       O  0.05194501  0.26731714  0.38607380    -0.73300
C2413       C  0.06042106  0.25214913  0.40575061     0.99100
O2414       O  0.08527126  0.18931230  0.33699997    -0.62100
O2415       O  0.03566075  0.18223176  0.16510304    -0.56900
O2416       O  0.06403488  0.17992756  0.30506645    -0.93600
O2417       O  0.04483399  0.17556617  0.26085644    -0.92000
O2418       O  0.06691510  0.18589584  0.11617438    -0.92400
O2419       O  0.09140423  0.19216410  0.15698856    -0.91200
C2420       C  0.05404047  0.16679006  0.28889759     1.17900
H2421       H  0.04678315  0.22935881  0.12365058     0.33800
H2422       H  0.09271524  0.23604406  0.22453895     0.44700
H2423       H  0.04461887  0.22261806  0.32468313     0.38200
H2424       H  0.05519506  0.31427399  0.24356374     0.34700
H2425       H  0.09645590  0.22696280  0.08674417     0.26500
H2426       H  0.09424659  0.32775363  0.28479795     0.32400
H2427       H  0.04737944  0.31840846  0.37251862     0.38300
H2428       H  0.07184798  0.18492760  0.08519056     0.32800
H2429       H  0.02780766  0.17310305  0.17897397     0.31700
H2430       H  0.01640409  0.19320981  0.25644760     0.33400
H2431       H  0.02505318  0.27225449  0.37404341     0.32300
H2432       H  0.09230425  0.18823708  0.19177966     0.36300
H2433       H  0.09289808  0.18542955  0.31513448     0.29100
H2434       H  0.04019188  0.32008108  0.09284742     0.33300
H2435       H  0.02606776  0.31564549  0.32405500     0.36100
H2436       H  0.03208299  0.19087135  0.13596095     0.28700
H2437       H  0.08941972  0.19703954  0.36606994     0.41600
H2438       H  0.10447154  0.28158784  0.17882952     0.31700
H2439       H  0.09477597  0.25534218  0.10499725     0.39300
H2440       H  0.02538286  0.24579739  0.34686606     0.31100
H2441       H  0.07919358  0.32922613  0.30152507     0.31200
H2442       H  0.03181267  0.32445308  0.14031751     0.31500
Zr2443     Zr  0.04882265  0.28110703  0.66082452     2.17500
O2444       O  0.03353059  0.31077580  0.61985317    -0.50900
O2445       O  0.05461947  0.27224176  0.57608510    -0.74100
O2446       O  0.05631893  0.32671985  0.66242235    -0.80900
O2447       O  0.02036818  0.23129921  0.67981645    -0.82600
O2448       O  0.07607334  0.32963823  0.70361652    -0.78200
O2449       O  0.02523279  0.27097828  0.64886307    -0.89900
O2450       O  0.06883469  0.23795725  0.57212176    -0.75800
O2451       O  0.07229230  0.27205190  0.65914387    -0.85300
O2452       O  0.05070105  0.23520088  0.65381197    -0.85000
O2453       O  0.05670822  0.29639213  0.73782590    -0.71800
O2454       O  0.03741999  0.26213506  0.72904522    -0.83900
Zr2455     Zr  0.07252151  0.22415716  0.79811305     2.26400
Zr2456     Zr  0.08036521  0.28719627  0.73564413     2.06300
Zr2457     Zr  0.04019031  0.21643923  0.72316888     2.10000
Zr2458     Zr  0.07409265  0.22610481  0.65356627     1.78800
O2459       O  0.02067793  0.20747156  0.77365982    -0.92700
O2460       O  0.09560220  0.23785632  0.61749558    -0.40500
O2461       O  0.06379270  0.20743864  0.72326081    -0.77200
O2462       O  0.08331484  0.24146927  0.72714822    -0.95800
O2463       O  0.06957439  0.26945749  0.80541414    -0.89200
O2464       O  0.04880397  0.23148662  0.79882019    -0.92000
C2465       C  0.06161942  0.25546390  0.55276558     1.01800
C2466       C  0.01729516  0.25195713  0.65675753     1.14700
C2467       C  0.06622554  0.33958468  0.68053320     1.05500
O2468       O  0.09875894  0.29940167  0.68227589    -0.94100
O2469       O  0.10077620  0.27359615  0.77513752    -0.89900
O2470       O  0.09655788  0.23414712  0.80799843    -0.83000
C2471       C  0.10439685  0.25301518  0.79700967     1.12100
O2472       O  0.02784186  0.30814951  0.79192731    -0.96100
Zr2473     Zr  0.04585270  0.27689458  0.80474561     1.88900
O2474       O  0.06816542  0.23665243  0.88228232    -0.72800
O2475       O  0.08673662  0.31803199  0.79792878    -0.52000
O2476       O  0.05193611  0.31777834  0.84237866    -0.96700
O2477       O  0.02496637  0.26340725  0.84377387    -0.53900
O2478       O  0.05212274  0.26781602  0.88630654    -0.73300
C2479       C  0.06062071  0.25255105  0.90552177     0.99100
O2480       O  0.08499130  0.19001847  0.83911206    -0.62100
O2481       O  0.03518991  0.18219001  0.66553427    -0.56900
O2482       O  0.06438691  0.17978668  0.80369009    -0.93600
O2483       O  0.04467343  0.17537464  0.76248390    -0.92000
O2484       O  0.06740546  0.18665736  0.61220238    -0.92400
O2485       O  0.09013867  0.19086755  0.66217037    -0.91200
C2486       C  0.05419746  0.16664598  0.78916396     1.17900
H2487       H  0.04641047  0.22907784  0.62473552     0.33800
H2488       H  0.09264267  0.23671116  0.72383789     0.44700
H2489       H  0.04470914  0.22239349  0.82544763     0.38200
H2490       H  0.05481708  0.31432694  0.74387613     0.34700
H2491       H  0.09628557  0.22696260  0.58824207     0.26500
H2492       H  0.09439211  0.32772444  0.78394291     0.32400
H2493       H  0.04712826  0.31791595  0.87365469     0.38300
H2494       H  0.06283419  0.17618836  0.63717925     0.32800
H2495       H  0.02702159  0.17368399  0.67840982     0.31700
H2496       H  0.01620415  0.19257392  0.75805613     0.33400
H2497       H  0.02472334  0.27311304  0.87452120     0.32300
H2498       H  0.09220677  0.19025277  0.69708544     0.36300
H2499       H  0.09244615  0.18527272  0.81708770     0.29100
H2500       H  0.03899656  0.31983246  0.59527746     0.33300
H2501       H  0.02531616  0.31449171  0.82436638     0.36100
H2502       H  0.03207714  0.19106869  0.63595399     0.28700
H2503       H  0.08939898  0.19834632  0.86709111     0.41600
H2504       H  0.10353773  0.28304135  0.67545277     0.31700
H2505       H  0.09424604  0.25554425  0.60490434     0.39300
H2506       H  0.02633910  0.24525753  0.85369260     0.31100
H2507       H  0.07926360  0.33065505  0.79905212     0.31200
H2508       H  0.03115382  0.32416294  0.64392401     0.31500
Zr2509     Zr  0.19988891  0.28135779  0.45566658     2.17500
O2510       O  0.21483959  0.31155132  0.49698312    -0.50900
O2511       O  0.19425560  0.27181010  0.54039859    -0.74100
O2512       O  0.19207437  0.32664448  0.45499209    -0.80900
O2513       O  0.22832605  0.23196213  0.43845533    -0.82600
O2514       O  0.17293526  0.32987236  0.41031375    -0.78200
O2515       O  0.22350439  0.27185027  0.46843778    -0.89900
O2516       O  0.17945707  0.23843422  0.54395525    -0.75800
O2517       O  0.17639875  0.27244738  0.45624883    -0.85300
O2518       O  0.19794616  0.23554722  0.46298983    -0.85000
O2519       O  0.19224796  0.29647558  0.37817012    -0.71800
O2520       O  0.21149177  0.26252744  0.38766072    -0.83900
Zr2521     Zr  0.17660460  0.22437519  0.31726832     2.26400
Zr2522     Zr  0.16856878  0.28732335  0.37919559     2.06300
Zr2523     Zr  0.20864793  0.21687480  0.39397315     2.10000
Zr2524     Zr  0.17453712  0.22653254  0.46218428     1.78800
O2525       O  0.22842715  0.20678943  0.34572522    -0.92700
O2526       O  0.15289123  0.23808833  0.49756800    -0.40500
O2527       O  0.18502695  0.20792303  0.39277106    -0.77200
O2528       O  0.16564393  0.24160897  0.38787357    -0.95800
O2529       O  0.17954979  0.26968729  0.30970442    -0.89200
O2530       O  0.20034601  0.23170723  0.31769563    -0.92000
C2531       C  0.18697342  0.25539702  0.56355029     1.01800
C2532       C  0.23142452  0.25274255  0.46119180     1.14700
C2533       C  0.18244845  0.33960153  0.43541731     1.05500
O2534       O  0.15004508  0.29912547  0.43229093    -0.94100
O2535       O  0.14825598  0.27357878  0.33922635    -0.89900
O2536       O  0.15257793  0.23406560  0.30690050    -0.83000
C2537       C  0.14469341  0.25287659  0.31763467     1.12100
O2538       O  0.22141151  0.30810198  0.32477652    -0.96100
Zr2539     Zr  0.20329172  0.27709819  0.31137758     1.88900
O2540       O  0.18103882  0.23667338  0.23317646    -0.72800
O2541       O  0.16206305  0.31817822  0.31713716    -0.52000
O2542       O  0.19789955  0.31850321  0.27425536    -0.96700
O2543       O  0.22393468  0.26256581  0.27191629    -0.53900
O2544       O  0.19716766  0.26770079  0.22963238    -0.73300
C2545       C  0.18867880  0.25248340  0.21017625     0.99100
O2546       O  0.16425748  0.19035117  0.27535946    -0.62100
O2547       O  0.21335654  0.18201757  0.45051439    -0.56900
O2548       O  0.18461935  0.17999288  0.31239221    -0.93600
O2549       O  0.20406970  0.17574843  0.35518856    -0.92000
O2550       O  0.18185382  0.18672749  0.50081378    -0.92400
O2551       O  0.15806748  0.19187222  0.45538109    -0.91200
C2552       C  0.19467161  0.16690138  0.32811223     1.17900
H2553       H  0.20217159  0.22940119  0.49221349     0.33800
H2554       H  0.15632067  0.23671166  0.39091311     0.44700
H2555       H  0.20457353  0.22255581  0.29141529     0.38200
H2556       H  0.19419121  0.31443505  0.37255861     0.34700
H2557       H  0.15218994  0.22740112  0.52708754     0.26500
H2558       H  0.15571230  0.33008781  0.33333586     0.32400
H2559       H  0.20158575  0.31749511  0.24113481     0.38300
H2560       H  0.17685922  0.18613698  0.53169901     0.32800
H2561       H  0.22174597  0.17404653  0.43827795     0.31700
H2562       H  0.23260061  0.22374730  0.33886019     0.33400
H2563       H  0.22565799  0.27540471  0.24620723     0.32300
H2564       H  0.16021315  0.18332263  0.42438039     0.36300
H2565       H  0.15672775  0.18551107  0.29698598     0.29100
H2566       H  0.20932460  0.31998413  0.52218340     0.33300
H2567       H  0.22376036  0.31512347  0.29265480     0.36100
H2568       H  0.21607166  0.19061079  0.48087581     0.28700
H2569       H  0.15994536  0.19875581  0.24726918     0.41600
H2570       H  0.14462981  0.28317250  0.43550737     0.31700
H2571       H  0.15411454  0.25589789  0.50972664     0.39300
H2572       H  0.22149655  0.24667690  0.25412016     0.31100
H2573       H  0.17023716  0.32866898  0.31137345     0.31200
H2574       H  0.21693394  0.32534563  0.47338041     0.31500
Zr2575     Zr  0.19992002  0.28177138  0.95592750     2.17500
O2576       O  0.21485318  0.31106228  0.99960428    -0.50900
O2577       O  0.19404396  0.27278678  0.04041886    -0.74100
O2578       O  0.19235490  0.32722473  0.95372217    -0.80900
O2579       O  0.22833591  0.23205254  0.93851178    -0.82600
O2580       O  0.17274147  0.32976879  0.91151908    -0.78200
O2581       O  0.22358603  0.27227079  0.96703301    -0.89900
O2582       O  0.17970684  0.23869625  0.04449565    -0.75800
O2583       O  0.17646907  0.27265404  0.95714197    -0.85300
O2584       O  0.19802731  0.23595480  0.96345787    -0.85000
O2585       O  0.19218739  0.29663306  0.87853505    -0.71800
O2586       O  0.21137182  0.26283797  0.88781967    -0.83900
Zr2587     Zr  0.17645412  0.22392259  0.81837391     2.26400
Zr2588     Zr  0.16853725  0.28721237  0.87999787     2.06300
Zr2589     Zr  0.20866146  0.21718604  0.89440924     2.10000
Zr2590     Zr  0.17463151  0.22675578  0.96319517     1.78800
O2591       O  0.22831572  0.20915139  0.84419792    -0.92700
O2592       O  0.15273736  0.24010282  0.99415670    -0.40500
O2593       O  0.18506572  0.20790505  0.89393472    -0.77200
O2594       O  0.16557228  0.24143422  0.88888480    -0.95800
O2595       O  0.17930086  0.26919540  0.81046680    -0.89200
O2596       O  0.20014438  0.23162241  0.81824623    -0.92000
C2597       C  0.18699869  0.25609798  0.06371848     1.01800
C2598       C  0.23147080  0.25306730  0.96028531     1.14700
C2599       C  0.18248095  0.33987347  0.93496137     1.05500
O2600       O  0.14982306  0.29969719  0.93172886    -0.94100
O2601       O  0.14821069  0.27357845  0.84007815    -0.89900
O2602       O  0.15248281  0.23413753  0.80730451    -0.83000
C2603       C  0.14462989  0.25300006  0.81812053     1.12100
O2604       O  0.22119488  0.30821758  0.81986322    -0.96100
Zr2605     Zr  0.20296378  0.27701880  0.81154486     1.88900
O2606       O  0.18097136  0.23564872  0.73375546    -0.72800
O2607       O  0.16295288  0.31786107  0.81644091    -0.52000
O2608       O  0.19602629  0.31806535  0.77638415    -0.96700
O2609       O  0.22399273  0.26402253  0.77290710    -0.53900
O2610       O  0.19678479  0.26728127  0.72997807    -0.73300
C2611       C  0.18846597  0.25169776  0.71056270     0.99100
O2612       O  0.16355042  0.18912795  0.78097827    -0.62100
O2613       O  0.21399222  0.18237477  0.95036632    -0.56900
O2614       O  0.18497512  0.17985444  0.81342216    -0.93600
O2615       O  0.20446296  0.17588582  0.85614766    -0.92000
O2616       O  0.18142460  0.18792288  0.00628425    -0.92400
O2617       O  0.15899911  0.19057078  0.96062117    -0.91200
C2618       C  0.19511270  0.16694152  0.82901048     1.17900
H2619       H  0.20229728  0.22990726  0.99265107     0.33800
H2620       H  0.15625028  0.23656691  0.89184211     0.44700
H2621       H  0.20434735  0.22246789  0.79188546     0.38200
H2622       H  0.19410326  0.31455837  0.87242225     0.34700
H2623       H  0.15096378  0.22845253  0.02174984     0.26500
H2624       H  0.15560455  0.32851002  0.83006359     0.32400
H2625       H  0.19950224  0.31782061  0.74293357     0.38300
H2626       H  0.18728841  0.17853354  0.98337529     0.32800
H2627       H  0.22294942  0.17610266  0.94000175     0.31700
H2628       H  0.23297753  0.19451959  0.85995551     0.33400
H2629       H  0.22343608  0.27085693  0.73962242     0.32300
H2630       H  0.15900229  0.18501983  0.92645697     0.36300
H2631       H  0.15609096  0.18523451  0.80357124     0.29100
H2632       H  0.20914842  0.31993193  0.02371770     0.33300
H2633       H  0.22271037  0.31526091  0.78711249     0.36100
H2634       H  0.21567299  0.19089632  0.98174071     0.28700
H2635       H  0.15917742  0.19675968  0.75224754     0.41600
H2636       H  0.14401452  0.28419582  0.93352434     0.31700
H2637       H  0.15434331  0.25715640  0.00919822     0.39300
H2638       H  0.22348705  0.24507294  0.76898054     0.31100
H2639       H  0.17076978  0.32968219  0.81470535     0.31200
H2640       H  0.21745715  0.32464519  0.97623789     0.31500
Zr2641     Zr  0.04908083  0.78124452  0.41054565     2.17500
O2642       O  0.03473922  0.81025271  0.36379402    -0.50900
O2643       O  0.05452627  0.77129135  0.32606088    -0.74100
O2644       O  0.05654376  0.82676670  0.41223827    -0.80900
O2645       O  0.02065134  0.73165035  0.42953309    -0.82600
O2646       O  0.07623411  0.82973032  0.45386697    -0.78200
O2647       O  0.02524080  0.77212564  0.40191042    -0.89900
O2648       O  0.06951420  0.73828459  0.32219474    -0.75800
O2649       O  0.07257132  0.77226120  0.40955137    -0.85300
O2650       O  0.05104647  0.73546232  0.40332692    -0.85000
O2651       O  0.05691052  0.79658725  0.48761404    -0.71800
O2652       O  0.03765395  0.76241775  0.47883022    -0.83900
Zr2653     Zr  0.07270135  0.72436874  0.54858775     2.26400
Zr2654     Zr  0.08054015  0.78739300  0.48630668     2.06300
Zr2655     Zr  0.04052009  0.71675560  0.47266045     2.10000
Zr2656     Zr  0.07440630  0.72630694  0.40374161     1.78800
O2657       O  0.02117217  0.70675068  0.52316532    -0.92700
O2658       O  0.09619344  0.73714828  0.36873605    -0.40500
O2659       O  0.06413693  0.70770182  0.47348725    -0.77200
O2660       O  0.08345996  0.74162086  0.47759127    -0.95800
O2661       O  0.06977572  0.76968849  0.55605346    -0.89200
O2662       O  0.04898496  0.73182357  0.54854504    -0.92000
C2663       C  0.06184555  0.75502947  0.30283747     1.01800
C2664       C  0.01740294  0.75278340  0.40835015     1.14700
C2665       C  0.06640702  0.83962086  0.43058351     1.05500
O2666       O  0.09949850  0.80140362  0.43725341    -0.94100
O2667       O  0.10108041  0.77342639  0.52429521    -0.89900
O2668       O  0.09674078  0.73439597  0.55871091    -0.83000
C2669       C  0.10464715  0.75300356  0.54677168     1.12100
O2670       O  0.02900962  0.81024779  0.54030690    -0.96100
Zr2671     Zr  0.04606532  0.77723312  0.55463363     1.88900
O2672       O  0.06824917  0.73646598  0.63296300    -0.72800
O2673       O  0.08574609  0.81757394  0.55105764    -0.52000
O2674       O  0.05180003  0.81795340  0.59362869    -0.96700
O2675       O  0.02475496  0.76373050  0.59038389    -0.53900
O2676       O  0.05213953  0.76756307  0.63647531    -0.73300
C2677       C  0.06059440  0.75226919  0.65602311     0.99100
O2678       O  0.08515452  0.68946681  0.58742682    -0.62100
O2679       O  0.03540395  0.68295044  0.41425222    -0.56900
O2680       O  0.06437433  0.68022686  0.55463536    -0.93600
O2681       O  0.04509657  0.67553203  0.51096808    -0.92000
O2682       O  0.06610930  0.68663415  0.36700241    -0.92400
O2683       O  0.09072845  0.69130903  0.40721602    -0.91200
C2684       C  0.05439409  0.66696183  0.53878943     1.17900
H2685       H  0.04677637  0.72930555  0.37422618     0.33800
H2686       H  0.09276078  0.73669762  0.47431549     0.44700
H2687       H  0.04480102  0.72276403  0.57503987     0.38200
H2688       H  0.05498175  0.81450443  0.49369416     0.34700
H2689       H  0.09661367  0.72724189  0.33821595     0.26500
H2690       H  0.09333938  0.82799142  0.53853585     0.32400
H2691       H  0.04658131  0.81809784  0.62404632     0.38300
H2692       H  0.06877291  0.68771004  0.33265613     0.32800
H2693       H  0.02699335  0.67495651  0.42624209     0.31700
H2694       H  0.01595768  0.69393160  0.50438469     0.33400
H2695       H  0.02369646  0.77477090  0.61927250     0.32300
H2696       H  0.09096641  0.68625972  0.44164039     0.36300
H2697       H  0.09261383  0.68512983  0.56513317     0.29100
H2698       H  0.04070493  0.81861059  0.33983458     0.33300
H2699       H  0.02545710  0.81508794  0.57240350     0.36100
H2700       H  0.03267068  0.69204526  0.38442259     0.28700
H2701       H  0.08955303  0.69727547  0.61594121     0.41600
H2702       H  0.10389060  0.78520897  0.42671773     0.31700
H2703       H  0.09529688  0.75533859  0.35832465     0.39300
H2704       H  0.02637645  0.74627559  0.60362964     0.31100
H2705       H  0.07803701  0.82967084  0.55182582     0.31200
H2706       H  0.03201480  0.82425816  0.38607766     0.31500
Zr2707     Zr  0.04912489  0.78109214  0.91096147     2.17500
O2708       O  0.03462335  0.81012587  0.86495270    -0.50900
O2709       O  0.05529924  0.77227239  0.82651661    -0.74100
O2710       O  0.05654676  0.82678279  0.91413581    -0.80900
O2711       O  0.02041007  0.73138694  0.93060281    -0.82600
O2712       O  0.07629123  0.82934343  0.95559407    -0.78200
O2713       O  0.02543360  0.77097577  0.89953684    -0.89900
O2714       O  0.06857770  0.73666641  0.82244230    -0.75800
O2715       O  0.07255687  0.77167730  0.90985409    -0.85300
O2716       O  0.05088683  0.73521291  0.90403478    -0.85000
O2717       O  0.05693990  0.79618543  0.98834552    -0.71800
O2718       O  0.03759348  0.76218727  0.97901542    -0.83900
Zr2719     Zr  0.07244784  0.72389025  0.04900983     2.26400
Zr2720     Zr  0.08056375  0.78663365  0.98657316     2.06300
Zr2721     Zr  0.04031320  0.71647059  0.97332960     2.10000
Zr2722     Zr  0.07422165  0.72572534  0.90407794     1.78800
O2723       O  0.02076944  0.70723098  0.02343797    -0.92700
O2724       O  0.09535251  0.73763697  0.86530919    -0.40500
O2725       O  0.06389115  0.70713220  0.97388518    -0.77200
O2726       O  0.08331969  0.74087971  0.97806261    -0.95800
O2727       O  0.06959732  0.76921978  0.05624799    -0.89200
O2728       O  0.04874886  0.73147108  0.04918124    -0.92000
C2729       C  0.06184443  0.75487360  0.80311621     1.01800
C2730       C  0.01739930  0.75207748  0.90753807     1.14700
C2731       C  0.06647900  0.83948890  0.93255937     1.05500
O2732       O  0.09906512  0.79874942  0.93361598    -0.94100
O2733       O  0.10096565  0.77252044  0.02532081    -0.89900
O2734       O  0.09647471  0.73364387  0.06002571    -0.83000
C2735       C  0.10444090  0.75216043  0.04816670     1.12100
O2736       O  0.02814341  0.80850486  0.04012955    -0.96100
Zr2737     Zr  0.04588098  0.77690338  0.05497861     1.88900
O2738       O  0.06789013  0.73594203  0.13318060    -0.72800
O2739       O  0.08728755  0.81610182  0.05057413    -0.52000
O2740       O  0.05138105  0.81790548  0.09344299    -0.96700
O2741       O  0.02466707  0.76398851  0.09231532    -0.53900
O2742       O  0.05200700  0.76744816  0.13669233    -0.73300
C2743       C  0.06032769  0.75189773  0.15618153     0.99100
O2744       O  0.08478143  0.68907144  0.08853789    -0.62100
O2745       O  0.03552537  0.68248124  0.91507577    -0.56900
O2746       O  0.06413042  0.67987812  0.05565852    -0.93600
O2747       O  0.04467240  0.67545002  0.01296777    -0.92000
O2748       O  0.06691255  0.68538611  0.86728287    -0.92400
O2749       O  0.09144526  0.69247811  0.91086926    -0.91200
C2750       C  0.05402768  0.66677904  0.04045704     1.17900
H2751       H  0.04656665  0.72913611  0.87495408     0.33800
H2752       H  0.09261806  0.73585287  0.97511765     0.44700
H2753       H  0.04456331  0.72244196  0.07570193     0.38200
H2754       H  0.05507081  0.81407838  0.99485645     0.34700
H2755       H  0.09589203  0.72650069  0.83632987     0.26500
H2756       H  0.09256820  0.82973551  0.03420024     0.32400
H2757       H  0.04529805  0.81906484  0.12164722     0.38300
H2758       H  0.07222813  0.68399098  0.83718437     0.32800
H2759       H  0.02761456  0.67334494  0.92848996     0.31700
H2760       H  0.01602398  0.69307196  0.00651867     0.33400
H2761       H  0.02501859  0.77121041  0.12535257     0.32300
H2762       H  0.08952548  0.68385420  0.94198584     0.36300
H2763       H  0.09257277  0.68520729  0.06743484     0.29100
H2764       H  0.04061405  0.81942029  0.84231482     0.33300
H2765       H  0.02458774  0.81342423  0.07218972     0.36100
H2766       H  0.03201744  0.69145071  0.88616768     0.28700
H2767       H  0.08870536  0.69676705  0.11803359     0.41600
H2768       H  0.10344046  0.78220430  0.92505800     0.31700
H2769       H  0.09379622  0.75517913  0.85231686     0.39300
H2770       H  0.02523061  0.74509947  0.09700385     0.31100
H2771       H  0.07884009  0.82473265  0.06046701     0.31200
H2772       H  0.03150661  0.82340629  0.88810390     0.31500
Zr2773     Zr  0.19985510  0.78161706  0.20603495     2.17500
O2774       O  0.21414043  0.81134872  0.25141596    -0.50900
O2775       O  0.19397658  0.77241949  0.29060356    -0.74100
O2776       O  0.19223228  0.82710922  0.20327524    -0.80900
O2777       O  0.22809127  0.73133143  0.19042566    -0.82600
O2778       O  0.17249512  0.82964755  0.16189714    -0.78200
O2779       O  0.22355537  0.77204792  0.21704854    -0.89900
O2780       O  0.17967184  0.73829201  0.29443993    -0.75800
O2781       O  0.17644836  0.77227657  0.20670156    -0.85300
O2782       O  0.19807186  0.73575439  0.21320280    -0.85000
O2783       O  0.19217335  0.79653246  0.12853010    -0.71800
O2784       O  0.21143917  0.76266622  0.13816286    -0.83900
Zr2785     Zr  0.17660658  0.72400695  0.06792125     2.26400
Zr2786     Zr  0.16854908  0.78709693  0.12973246     2.06300
Zr2787     Zr  0.20870719  0.71693177  0.14415128     2.10000
Zr2788     Zr  0.17474111  0.72634235  0.21275767     1.78800
O2789       O  0.22866154  0.71011114  0.09471762    -0.92700
O2790       O  0.15293360  0.73826569  0.24607860    -0.40500
O2791       O  0.18513522  0.70772968  0.14328426    -0.77200
O2792       O  0.16572437  0.74131723  0.13856872    -0.95800
O2793       O  0.17946312  0.76931164  0.06026341    -0.89200
O2794       O  0.20030360  0.73156532  0.06788723    -0.92000
C2795       C  0.18693937  0.75568895  0.31387641     1.01800
C2796       C  0.23129760  0.75248014  0.21164600     1.14700
C2797       C  0.18229332  0.83978286  0.18498899     1.05500
O2798       O  0.14970175  0.79938970  0.18097199    -0.94100
O2799       O  0.14819580  0.77312289  0.09035299    -0.89900
O2800       O  0.15257486  0.73375755  0.05739214    -0.83000
C2801       C  0.14465961  0.75247676  0.06849969     1.12100
O2802       O  0.22082897  0.80922787  0.07308435    -0.96100
Zr2803     Zr  0.20317438  0.77701607  0.06183082     1.88900
O2804       O  0.18110931  0.73597763  0.98367467    -0.72800
O2805       O  0.16327076  0.81804758  0.06639929    -0.52000
O2806       O  0.19721426  0.81784638  0.02369288    -0.96700
O2807       O  0.22444815  0.76347661  0.02557768    -0.53900
O2808       O  0.19707974  0.76733173  0.98014661    -0.73300
C2809       C  0.18868882  0.75190650  0.96066107     0.99100
O2810       O  0.16430095  0.68931252  0.02791547    -0.62100
O2811       O  0.21339541  0.68163989  0.19989130    -0.56900
O2812       O  0.18487028  0.67979726  0.06290622    -0.93600
O2813       O  0.20433790  0.67561201  0.10559828    -0.92000
O2814       O  0.18239543  0.68707778  0.25250652    -0.92400
O2815       O  0.15894452  0.69047761  0.20773815    -0.91200
C2816       C  0.19496159  0.66675165  0.07841971     1.17900
H2817       H  0.20232949  0.72965540  0.24236837     0.33800
H2818       H  0.15641153  0.73636535  0.14166522     0.44700
H2819       H  0.20448284  0.72243919  0.04150451     0.38200
H2820       H  0.19401975  0.81447372  0.12234215     0.34700
H2821       H  0.15228161  0.72851550  0.27670529     0.26500
H2822       H  0.15619873  0.82922590  0.08042460     0.32400
H2823       H  0.20252970  0.81840504  0.99350836     0.38300
H2824       H  0.17785202  0.68707505  0.28429172     0.32800
H2825       H  0.22175831  0.67363534  0.18751367     0.31700
H2826       H  0.22917930  0.69122075  0.08974183     0.33400
H2827       H  0.22441085  0.77112661  0.99286090     0.32300
H2828       H  0.15830934  0.68659012  0.17284689     0.36300
H2829       H  0.15679131  0.68479563  0.04987639     0.29100
H2830       H  0.20818033  0.81980588  0.27526484     0.33300
H2831       H  0.22399766  0.81387870  0.04036335     0.36100
H2832       H  0.21611380  0.68998187  0.23049944     0.28700
H2833       H  0.15996062  0.69730362  0.99947546     0.41600
H2834       H  0.14464104  0.78317838  0.18634732     0.31700
H2835       H  0.15400742  0.75645904  0.25628046     0.39300
H2836       H  0.22367466  0.74469280  0.01988655     0.31100
H2837       H  0.17131291  0.82928219  0.06425473     0.31200
H2838       H  0.21674834  0.82519544  0.22860513     0.31500
Zr2839     Zr  0.19983682  0.78142558  0.70627753     2.17500
O2840       O  0.21428457  0.81124163  0.75077053    -0.50900
O2841       O  0.19401133  0.77205287  0.79070970    -0.74100
O2842       O  0.19217819  0.82691277  0.70394606    -0.80900
O2843       O  0.22829944  0.73156676  0.68925622    -0.82600
O2844       O  0.17256602  0.82955103  0.66181582    -0.78200
O2845       O  0.22351599  0.77180170  0.71781660    -0.89900
O2846       O  0.17989464  0.73762627  0.79463971    -0.75800
O2847       O  0.17640447  0.77208246  0.70715992    -0.85300
O2848       O  0.19802099  0.73558881  0.71361970    -0.85000
O2849       O  0.19215796  0.79642143  0.62880225    -0.71800
O2850       O  0.21141509  0.76240056  0.63850767    -0.83900
Zr2851     Zr  0.17667105  0.72382977  0.56818907     2.26400
Zr2852     Zr  0.16854802  0.78687756  0.63012583     2.06300
Zr2853     Zr  0.20869486  0.71672078  0.64470047     2.10000
Zr2854     Zr  0.17467167  0.72612453  0.71307739     1.78800
O2855       O  0.22835856  0.70921769  0.59424751    -0.92700
O2856       O  0.15316087  0.73770760  0.74930915    -0.40500
O2857       O  0.18510934  0.70747568  0.64366948    -0.77200
O2858       O  0.16570393  0.74110917  0.63874433    -0.95800
O2859       O  0.17951779  0.76913893  0.56076813    -0.89200
O2860       O  0.20036248  0.73141681  0.56844148    -0.92000
C2861       C  0.18708705  0.75515998  0.81397483     1.01800
C2862       C  0.23140231  0.75256055  0.71118452     1.14700
C2863       C  0.18229661  0.83964340  0.68538023     1.05500
O2864       O  0.14963423  0.79823105  0.68172508    -0.94100
O2865       O  0.14835753  0.77328266  0.58962488    -0.89900
O2866       O  0.15270793  0.73384052  0.55699298    -0.83000
C2867       C  0.14483887  0.75270852  0.56757917     1.12100
O2868       O  0.22127182  0.80790161  0.57607215    -0.96100
Zr2869     Zr  0.20319813  0.77688225  0.56223530     1.88900
O2870       O  0.18122011  0.73589146  0.48382807    -0.72800
O2871       O  0.16238777  0.81694472  0.56635556    -0.52000
O2872       O  0.19738615  0.81827113  0.52594658    -0.96700
O2873       O  0.22414455  0.76391051  0.52309550    -0.53900
O2874       O  0.19697895  0.76764199  0.48038303    -0.73300
C2875       C  0.18867218  0.75206785  0.46080627     0.99100
O2876       O  0.16427613  0.68903834  0.52879332    -0.62100
O2877       O  0.21371188  0.68216737  0.70163518    -0.56900
O2878       O  0.18487192  0.67954157  0.56379166    -0.93600
O2879       O  0.20432604  0.67529870  0.60660343    -0.92000
O2880       O  0.18249108  0.68649036  0.75118376    -0.92400
O2881       O  0.15786672  0.69193832  0.70840173    -0.91200
C2882       C  0.19492035  0.66644149  0.57953436     1.17900
H2883       H  0.20229107  0.72954460  0.74279446     0.33800
H2884       H  0.15637882  0.73621028  0.64152325     0.44700
H2885       H  0.20458342  0.72229773  0.54211430     0.38200
H2886       H  0.19400857  0.81437236  0.62272712     0.34700
H2887       H  0.15262106  0.72723432  0.77914142     0.26500
H2888       H  0.15532946  0.82801122  0.58077435     0.32400
H2889       H  0.20175068  0.81815204  0.49385080     0.38300
H2890       H  0.17710335  0.68496822  0.78109796     0.32800
H2891       H  0.22237410  0.67489207  0.69039357     0.31700
H2892       H  0.23221590  0.69282981  0.60631382     0.33400
H2893       H  0.22419732  0.77327086  0.49196431     0.32300
H2894       H  0.16025579  0.68210570  0.67900745     0.36300
H2895       H  0.15673694  0.68474624  0.55079206     0.29100
H2896       H  0.20839305  0.81995556  0.77450359     0.33300
H2897       H  0.22363588  0.81491766  0.54396083     0.36100
H2898       H  0.21594933  0.69090304  0.73235933     0.28700
H2899       H  0.15997384  0.69688976  0.50015094     0.41600
H2900       H  0.14504381  0.78162769  0.68823595     0.31700
H2901       H  0.15440552  0.75560226  0.76096907     0.39300
H2902       H  0.22295772  0.74559208  0.51397652     0.31100
H2903       H  0.17029143  0.82842647  0.56282016     0.31200
H2904       H  0.21691306  0.82488515  0.72755523     0.31500
Zr2905     Zr  0.04896477  0.47632917  0.20637016     2.17500
O2906       O  0.03387496  0.44706209  0.24925726    -0.50900
O2907       O  0.05496597  0.48546714  0.29090559    -0.74100
O2908       O  0.05651357  0.43083679  0.20473767    -0.80900
O2909       O  0.02020847  0.52529540  0.18699492    -0.82600
O2910       O  0.07621659  0.42812810  0.16315109    -0.78200
O2911       O  0.02524642  0.48566097  0.21767060    -0.89900
O2912       O  0.06893075  0.52014660  0.29484480    -0.75800
O2913       O  0.07242599  0.48542120  0.20694866    -0.85300
O2914       O  0.05080921  0.52216970  0.21386689    -0.85000
O2915       O  0.05667786  0.46123743  0.12898630    -0.71800
O2916       O  0.03745756  0.49516777  0.13827690    -0.83900
Zr2917     Zr  0.07240130  0.53364455  0.06865943     2.26400
Zr2918     Zr  0.08033917  0.47043501  0.13010936     2.06300
Zr2919     Zr  0.04013831  0.54083399  0.14473930     2.10000
Zr2920     Zr  0.07420750  0.53135320  0.21308737     1.78800
O2921       O  0.02062671  0.55063026  0.09487859    -0.92700
O2922       O  0.09561241  0.51971970  0.25026865    -0.40500
O2923       O  0.06374592  0.55003656  0.14381362    -0.77200
O2924       O  0.08322409  0.51611554  0.13922212    -0.95800
O2925       O  0.06949186  0.48834579  0.06057352    -0.89200
O2926       O  0.04867119  0.52618065  0.06865327    -0.92000
C2927       C  0.06181671  0.50248469  0.31422508     1.01800
C2928       C  0.01718860  0.50447889  0.20971068     1.14700
C2929       C  0.06643505  0.41810336  0.18650677     1.05500
O2930       O  0.09933887  0.45816124  0.18061876    -0.94100
O2931       O  0.10074981  0.48436885  0.09085314    -0.89900
O2932       O  0.09654024  0.52410830  0.05924988    -0.83000
C2933       C  0.10439309  0.50517199  0.06973922     1.12100
O2934       O  0.02791555  0.44889846  0.07228318    -0.96100
Zr2935     Zr  0.04576923  0.48078313  0.06204200     1.88900
O2936       O  0.06781156  0.52190026  0.98444071    -0.72800
O2937       O  0.08574559  0.43955765  0.06674012    -0.52000
O2938       O  0.05176329  0.43969463  0.02499337    -0.96700
O2939       O  0.02473444  0.49465644  0.02445523    -0.53900
O2940       O  0.05180353  0.49066958  0.98036906    -0.73300
C2941       C  0.06021973  0.50613302  0.96114270     0.99100
O2942       O  0.08474502  0.56728256  0.02568026    -0.62100
O2943       O  0.03507270  0.57492145  0.20261483    -0.56900
O2944       O  0.06431453  0.57804436  0.06498173    -0.93600
O2945       O  0.04464257  0.58210141  0.10655518    -0.92000
O2946       O  0.06687105  0.57205987  0.24827179    -0.92400
O2947       O  0.09121559  0.56493611  0.20520587    -0.91200
C2948       C  0.05413970  0.59102631  0.08003672     1.17900
H2949       H  0.04655914  0.52828000  0.24301963     0.33800
H2950       H  0.09254257  0.52095263  0.14270250     0.44700
H2951       H  0.04450213  0.53537541  0.04229907     0.38200
H2952       H  0.05479624  0.44327489  0.12312773     0.34700
H2953       H  0.09610299  0.53023627  0.28004880     0.26500
H2954       H  0.09196248  0.42707663  0.08207398     0.32400
H2955       H  0.04760141  0.44008561  0.99255721     0.38300
H2956       H  0.07169029  0.57320343  0.27945467     0.32800
H2957       H  0.02716004  0.58395003  0.18894906     0.31700
H2958       H  0.01596636  0.56479230  0.11207960     0.33400
H2959       H  0.02406959  0.48441309  0.99440249     0.32300
H2960       H  0.08868152  0.57434645  0.17547324     0.36300
H2961       H  0.09224860  0.57240788  0.04719628     0.29100
H2962       H  0.03946945  0.43836392  0.27391146     0.33300
H2963       H  0.02543310  0.44315074  0.03940491     0.36100
H2964       H  0.03153825  0.56597571  0.23150165     0.28700
H2965       H  0.08909370  0.55860040  0.99795840     0.41600
H2966       H  0.10369965  0.47470087  0.18935139     0.31700
H2967       H  0.09433859  0.50182460  0.26192086     0.39300
H2968       H  0.02628482  0.51251611  0.01312408     0.31100
H2969       H  0.07732542  0.42970698  0.06164842     0.31200
H2970       H  0.03145110  0.43336081  0.22587367     0.31500
Zr2971     Zr  0.04924573  0.47670677  0.70694509     2.17500
O2972       O  0.03477865  0.44703986  0.75167054    -0.50900
O2973       O  0.05527582  0.48618370  0.79119198    -0.74100
O2974       O  0.05680551  0.43110299  0.70475976    -0.80900
O2975       O  0.02050547  0.52558533  0.68794166    -0.82600
O2976       O  0.07612098  0.42808423  0.66106696    -0.78200
O2977       O  0.02557929  0.48602830  0.71901263    -0.89900
O2978       O  0.06914524  0.52100188  0.79491057    -0.75800
O2979       O  0.07267125  0.48607979  0.70775721    -0.85300
O2980       O  0.05101768  0.52262922  0.71400002    -0.85000
O2981       O  0.05680625  0.46161904  0.62942642    -0.71800
O2982       O  0.03758231  0.49557462  0.63908308    -0.83900
Zr2983     Zr  0.07235270  0.53385190  0.56843092     2.26400
Zr2984     Zr  0.08044415  0.47092631  0.63093049     2.06300
Zr2985     Zr  0.04027248  0.54128618  0.64500359     2.10000
Zr2986     Zr  0.07436736  0.53210836  0.71304368     1.78800
O2987       O  0.02081936  0.55100073  0.59478684    -0.92700
O2988       O  0.09599228  0.52181684  0.74979871    -0.40500
O2989       O  0.06385041  0.55056894  0.64364833    -0.77200
O2990       O  0.08327048  0.51667250  0.63910441    -0.95800
O2991       O  0.06945789  0.48850129  0.56131892    -0.89200
O2992       O  0.04862714  0.52637125  0.56896267    -0.92000
C2993       C  0.06207532  0.50330410  0.81437239     1.01800
C2994       C  0.01753716  0.50487868  0.71109870     1.14700
C2995       C  0.06647853  0.41816539  0.68529415     1.05500
O2996       O  0.09858607  0.46020704  0.68644252    -0.94100
O2997       O  0.10074469  0.48474451  0.59136902    -0.89900
O2998       O  0.09640033  0.52405086  0.55819677    -0.83000
C2999       C  0.10429646  0.50531298  0.56938135     1.12100
O3000       O  0.02775065  0.44987398  0.57756930    -0.96100
Zr3001     Zr  0.04572976  0.48098489  0.56279639     1.88900
O3002       O  0.06759646  0.52206133  0.48412140    -0.72800
O3003       O  0.08770573  0.44023435  0.56965999    -0.52000
O3004       O  0.05102259  0.43956899  0.52567417    -0.96700
O3005       O  0.02487030  0.49484163  0.52396393    -0.53900
O3006       O  0.05201911  0.48997527  0.48092238    -0.73300
C3007       C  0.06019584  0.50575526  0.46121390     0.99100
O3008       O  0.08493282  0.56815215  0.52813939    -0.62100
O3009       O  0.03514894  0.57511661  0.70336211    -0.56900
O3010       O  0.06434820  0.57814116  0.56338230    -0.93600
O3011       O  0.04485709  0.58244567  0.60593345    -0.92000
O3012       O  0.06699376  0.57251303  0.74933190    -0.92400
O3013       O  0.09129291  0.56581040  0.70446071    -0.91200
C3014       C  0.05426930  0.59123166  0.57878112     1.17900
H3015       H  0.04677462  0.52874584  0.74316634     0.33800
H3016       H  0.09257367  0.52160523  0.64222121     0.44700
H3017       H  0.04439000  0.53548161  0.54259920     0.38200
H3018       H  0.05485196  0.44370010  0.62340279     0.34700
H3019       H  0.09603156  0.53132804  0.78079468     0.26500
H3020       H  0.09442687  0.42917890  0.58605839     0.32400
H3021       H  0.04568920  0.43916076  0.49551359     0.38300
H3022       H  0.07200398  0.57365339  0.78013454     0.32800
H3023       H  0.02722703  0.58415153  0.68979727     0.31700
H3024       H  0.01709757  0.56717057  0.60835308     0.33400
H3025       H  0.02379704  0.48316421  0.49595842     0.32300
H3026       H  0.08985609  0.57275840  0.67159054     0.36300
H3027       H  0.09250260  0.57254743  0.54994752     0.29100
H3028       H  0.04066628  0.43834784  0.77545015     0.33300
H3029       H  0.02469586  0.44391062  0.54546420     0.36100
H3030       H  0.03162283  0.56605653  0.73214743     0.28700
H3031       H  0.08918804  0.56005733  0.49964476     0.41600
H3032       H  0.10422832  0.47594776  0.68779389     0.31700
H3033       H  0.09525998  0.50345269  0.75923607     0.39300
H3034       H  0.02683552  0.51184541  0.50932527     0.31100
H3035       H  0.07984618  0.42882596  0.56436080     0.31200
H3036       H  0.03212595  0.43336458  0.72855134     0.31500
Zr3037     Zr  0.19989413  0.47628288  0.41169174     2.17500
O3038       O  0.21409980  0.44692520  0.36529069    -0.50900
O3039       O  0.19381542  0.48540066  0.32721630    -0.74100
O3040       O  0.19257293  0.43069504  0.41487636    -0.80900
O3041       O  0.22847918  0.52566292  0.43065693    -0.82600
O3042       O  0.17259942  0.42804468  0.45477399    -0.78200
O3043       O  0.22366247  0.48568710  0.40096828    -0.89900
O3044       O  0.17979057  0.51995715  0.32323507    -0.75800
O3045       O  0.17644806  0.48541257  0.41067506    -0.85300
O3046       O  0.19804621  0.52211361  0.40463598    -0.85000
O3047       O  0.19204175  0.46126422  0.48897102    -0.71800
O3048       O  0.21140231  0.49505898  0.47994669    -0.83900
Zr3049     Zr  0.17640433  0.53336419  0.54982290     2.26400
Zr3050     Zr  0.16841069  0.47041038  0.48736407     2.06300
Zr3051     Zr  0.20863045  0.54077636  0.47393535     2.10000
Zr3052     Zr  0.17466716  0.53135023  0.40512264     1.78800
O3053       O  0.22834946  0.55131276  0.52227400    -0.92700
O3054       O  0.15294422  0.51915755  0.37129921    -0.40500
O3055       O  0.18503758  0.54986978  0.47478436    -0.77200
O3056       O  0.16556258  0.51617133  0.47900889    -0.95800
O3057       O  0.17924278  0.48802800  0.55716552    -0.89200
O3058       O  0.20013716  0.52589159  0.54989207    -0.92000
C3059       C  0.18689853  0.50228309  0.30384588     1.01800
C3060       C  0.23160921  0.50478343  0.40832674     1.14700
C3061       C  0.18255211  0.41798986  0.43244098     1.05500
O3062       O  0.14967778  0.45825478  0.43544824    -0.94100
O3063       O  0.14802323  0.48418069  0.52687833    -0.89900
O3064       O  0.15243060  0.52337179  0.56041829    -0.83000
C3065       C  0.14450704  0.50472085  0.54911233     1.12100
O3066       O  0.22061688  0.44839128  0.54442281    -0.96100
Zr3067     Zr  0.20297148  0.48052512  0.55591296     1.88900
O3068       O  0.18103853  0.52176680  0.63407334    -0.72800
O3069       O  0.16301172  0.43914378  0.55005524    -0.52000
O3070       O  0.19766307  0.43933232  0.59388938    -0.96700
O3071       O  0.22392411  0.49502514  0.59297591    -0.53900
O3072       O  0.19672548  0.48991985  0.63752374    -0.73300
C3073       C  0.18849746  0.50563154  0.65703640     0.99100
O3074       O  0.16355992  0.56746837  0.58964362    -0.62100
O3075       O  0.21270538  0.57499870  0.41542249    -0.56900
O3076       O  0.18446075  0.57764488  0.55496072    -0.93600
O3077       O  0.20423833  0.58166084  0.51404992    -0.92000
O3078       O  0.18188094  0.57139345  0.36703873    -0.92400
O3079       O  0.15820812  0.56601688  0.41116460    -0.91200
C3080       C  0.19471349  0.59056557  0.54049651     1.17900
H3081       H  0.20232102  0.52826022  0.37552760     0.33800
H3082       H  0.15625126  0.52109221  0.47593293     0.44700
H3083       H  0.20438901  0.53488362  0.57636405     0.38200
H3084       H  0.19390436  0.44335255  0.49542370     0.34700
H3085       H  0.15202987  0.52975334  0.34175898     0.26500
H3086       H  0.15591851  0.42809666  0.53577868     0.32400
H3087       H  0.20242885  0.43965015  0.62524979     0.38300
H3088       H  0.18471130  0.58265013  0.39406650     0.32800
H3089       H  0.21946107  0.58633875  0.43092298     0.31700
H3090       H  0.23236729  0.56653399  0.50617977     0.33400
H3091       H  0.22136741  0.50896925  0.61559843     0.32300
H3092       H  0.15833235  0.57100666  0.44563838     0.36300
H3093       H  0.15603200  0.57176271  0.56759070     0.29100
H3094       H  0.20801246  0.43775713  0.34280452     0.33300
H3095       H  0.22445430  0.44518147  0.57682930     0.36100
H3096       H  0.21762847  0.56667951  0.38856816     0.28700
H3097       H  0.15926859  0.55936730  0.61807957     0.41600
H3098       H  0.14443901  0.47434145  0.43110435     0.31700
H3099       H  0.15424242  0.50135476  0.35921193     0.39300
H3100       H  0.22883732  0.50389772  0.56672895     0.31100
H3101       H  0.17102524  0.42783369  0.55211066     0.31200
H3102       H  0.21721142  0.43357541  0.38832840     0.31500
Zr3103     Zr  0.19988275  0.47637120  0.91106315     2.17500
O3104       O  0.21455661  0.44710698  0.86628059    -0.50900
O3105       O  0.19396168  0.48549192  0.82673388    -0.74100
O3106       O  0.19228804  0.43099285  0.91198734    -0.80900
O3107       O  0.22849496  0.52541258  0.92982796    -0.82600
O3108       O  0.17263511  0.42822583  0.95382329    -0.78200
O3109       O  0.22354707  0.48576334  0.89896053    -0.89900
O3110       O  0.17980496  0.51984848  0.82306129    -0.75800
O3111       O  0.17644257  0.48554533  0.90996486    -0.85300
O3112       O  0.19797571  0.52218985  0.90383355    -0.85000
O3113       O  0.19208950  0.46108460  0.98829435    -0.71800
O3114       O  0.21142975  0.49519566  0.97917779    -0.83900
Zr3115     Zr  0.17661483  0.53352378  0.04936667     2.26400
Zr3116     Zr  0.16846715  0.47057423  0.98665415     2.06300
Zr3117     Zr  0.20868847  0.54089799  0.97275649     2.10000
Zr3118     Zr  0.17460635  0.53145600  0.90460408     1.78800
O3119       O  0.22848939  0.55219889  0.02004055    -0.92700
O3120       O  0.15295769  0.51846867  0.87125754    -0.40500
O3121       O  0.18510031  0.55002806  0.97402669    -0.77200
O3122       O  0.16568017  0.51635813  0.97869152    -0.95800
O3123       O  0.17936888  0.48813142  0.05637346    -0.89200
O3124       O  0.20036414  0.52597801  0.04902556    -0.92000
C3125       C  0.18699214  0.50235000  0.80361695     1.01800
C3126       C  0.23153232  0.50472325  0.90676618     1.14700
C3127       C  0.18238343  0.41825403  0.93022672     1.05500
O3128       O  0.14974147  0.45918089  0.93412202    -0.94100
O3129       O  0.14816062  0.48439319  0.02659089    -0.89900
O3130       O  0.15258780  0.52363050  0.05994778    -0.83000
C3131       C  0.14465348  0.50493586  0.04883333     1.12100
O3132       O  0.22103503  0.44951344  0.04026236    -0.96100
Zr3133     Zr  0.20306955  0.48054061  0.05516919     1.88900
O3134       O  0.18109122  0.52161592  0.13378310    -0.72800
O3135       O  0.16232953  0.43945383  0.04863208    -0.52000
O3136       O  0.19847493  0.43930183  0.09416800    -0.96700
O3137       O  0.22379662  0.49487888  0.09395896    -0.53900
O3138       O  0.19649180  0.48924442  0.13696224    -0.73300
C3139       C  0.18836413  0.50511217  0.15669154     0.99100
O3140       O  0.16380036  0.56803597  0.08795697    -0.62100
O3141       O  0.21290873  0.57437270  0.91279969    -0.56900
O3142       O  0.18488865  0.57772040  0.05498335    -0.93600
O3143       O  0.20422506  0.58210547  0.01157159    -0.92000
O3144       O  0.18136281  0.57169151  0.86599157    -0.92400
O3145       O  0.15776101  0.56546513  0.91000288    -0.91200
C3146       C  0.19491232  0.59086141  0.03914017     1.17900
H3147       H  0.20220635  0.52827756  0.87458669     0.33800
H3148       H  0.15637642  0.52131851  0.97571269     0.44700
H3149       H  0.20468199  0.53492479  0.07540174     0.38200
H3150       H  0.19393171  0.44309532  0.99410574     0.34700
H3151       H  0.15174558  0.52945978  0.84236599     0.26500
H3152       H  0.15514545  0.42886084  0.03374300     0.32400
H3153       H  0.18915258  0.44082807  0.10643642     0.38300
H3154       H  0.17749078  0.57089984  0.83311358     0.32800
H3155       H  0.22041414  0.58465569  0.92631595     0.31700
H3156       H  0.23240995  0.56730237  0.00325922     0.33400
H3157       H  0.22100320  0.50761353  0.11862273     0.32300
H3158       H  0.15847480  0.57185670  0.94355776     0.36300
H3159       H  0.15631811  0.57217827  0.06560050     0.29100
H3160       H  0.20877958  0.43869744  0.84178624     0.33300
H3161       H  0.22450908  0.44466213  0.07247650     0.36100
H3162       H  0.21691333  0.56535578  0.88478811     0.28700
H3163       H  0.15944417  0.56017997  0.11649688     0.41600
H3164       H  0.14453730  0.47535292  0.93041670     0.31700
H3165       H  0.15450336  0.50096385  0.85808341     0.39300
H3166       H  0.22847020  0.50521724  0.06906065     0.31100
H3167       H  0.17015413  0.42769680  0.05094152     0.31200
H3168       H  0.21707184  0.43317941  0.88904271     0.31500
Zr3169     Zr  0.42698347  0.47330591  0.17259331     2.17500
O3170       O  0.41230377  0.44319398  0.21541633    -0.50900
O3171       O  0.43197187  0.48450031  0.25657545    -0.74100
O3172       O  0.43627659  0.42965474  0.18054899    -0.80900
O3173       O  0.39765753  0.51949356  0.14542911    -0.82600
O3174       O  0.45579421  0.42604930  0.13821518    -0.78200
O3175       O  0.40269010  0.48047884  0.17869926    -0.89900
O3176       O  0.44695816  0.51759879  0.25957977    -0.75800
O3177       O  0.45055454  0.48198556  0.17183613    -0.85300
O3178       O  0.42905381  0.51909363  0.17912367    -0.85000
O3179       O  0.43487148  0.45680526  0.09629079    -0.71800
O3180       O  0.41564682  0.49120758  0.10390446    -0.83900
Zr3181     Zr  0.44952930  0.53033775  0.03325139     2.26400
Zr3182     Zr  0.45851469  0.46668669  0.09532073     2.06300
Zr3183     Zr  0.41799034  0.53690207  0.10995726     2.10000
Zr3184     Zr  0.45264400  0.52771778  0.17713797     1.78800
O3185       O  0.40004463  0.55033722  0.05553972    -0.92700
O3186       O  0.47382697  0.51530364  0.21480367    -0.40500
O3187       O  0.44148582  0.54574489  0.10912885    -0.77200
O3188       O  0.46144356  0.51256302  0.10174329    -0.95800
O3189       O  0.44729189  0.48473252  0.02673411    -0.89200
O3190       O  0.42596027  0.52179462  0.03340861    -0.92000
C3191       C  0.43919839  0.50103776  0.27942021     1.01800
C3192       C  0.39445688  0.49864504  0.16744522     1.14700
C3193       C  0.44659229  0.41695578  0.16583980     1.05500
O3194       O  0.47899525  0.46116287  0.14248160    -0.94100
O3195       O  0.47704330  0.47829375  0.04230608    -0.89900
O3196       O  0.47242278  0.51830329  0.01271117    -0.83000
C3197       C  0.47999646  0.49851132  0.01777907     1.12100
O3198       O  0.40577448  0.44450875  0.03841969    -0.96100
Zr3199     Zr  0.42382782  0.47595145  0.02832672     1.88900
O3200       O  0.44315612  0.52171223  0.94940963    -0.72800
O3201       O  0.46303795  0.43144471  0.03950308    -0.52000
O3202       O  0.43039792  0.43480632  0.99282501    -0.96700
O3203       O  0.40262376  0.48903386  0.99123082    -0.53900
O3204       O  0.43005289  0.48582075  0.94635156    -0.73300
C3205       C  0.43682632  0.50388559  0.92653594     0.99100
O3206       O  0.46119098  0.56414401  0.98818234    -0.62100
O3207       O  0.41103867  0.56813226  0.17087416    -0.56900
O3208       O  0.44402135  0.57625752  0.04332613    -0.93600
O3209       O  0.42416646  0.57990554  0.08366295    -0.92000
O3210       O  0.44667930  0.56907309  0.21309002    -0.92400
O3211       O  0.46958752  0.56114729  0.16546062    -0.91200
C3212       C  0.43435334  0.58953370  0.06176092     1.17900
H3213       H  0.42487438  0.52560086  0.20808300     0.33800
H3214       H  0.47086339  0.51709346  0.10143697     0.44700
H3215       H  0.42148486  0.53048258  0.00708206     0.38200
H3216       H  0.43335547  0.43846173  0.09353123     0.34700
H3217       H  0.47501299  0.52769748  0.24166173     0.26500
H3218       H  0.47067442  0.42194117  0.05402829     0.32400
H3219       H  0.42682720  0.43521516  0.95950105     0.38300
H3220       H  0.45224979  0.57027712  0.24262497     0.32800
H3221       H  0.40355899  0.57779609  0.15570963     0.31700
H3222       H  0.39281210  0.55684942  0.07686840     0.33400
H3223       H  0.40512610  0.50025337  0.96376198     0.32300
H3224       H  0.46864237  0.56625934  0.13120908     0.36300
H3225       H  0.46948888  0.56795864  0.00665042     0.29100
H3226       H  0.41756307  0.43691620  0.24339434     0.33300
H3227       H  0.40320035  0.43914463  0.00540342     0.36100
H3228       H  0.40670008  0.55795091  0.19678302     0.28700
H3229       H  0.46436276  0.55593607  0.95798146     0.41600
H3230       H  0.48373978  0.47791828  0.13996701     0.31700
H3231       H  0.47191249  0.49863731  0.23088059     0.39300
H3232       H  0.39846317  0.50088360  0.01493055     0.31100
H3233       H  0.45525022  0.41964041  0.04272547     0.31200
H3234       H  0.41122355  0.42799081  0.19408818     0.31500
Zr3235     Zr  0.42682505  0.47328337  0.67255395     2.17500
O3236       O  0.41187341  0.44323760  0.71414332    -0.50900
O3237       O  0.43171628  0.48447647  0.75677237    -0.74100
O3238       O  0.43609461  0.42944925  0.68013365    -0.80900
O3239       O  0.39761751  0.51974108  0.64462085    -0.82600
O3240       O  0.45541118  0.42582931  0.63658664    -0.78200
O3241       O  0.40263040  0.48099493  0.67905348    -0.89900
O3242       O  0.44660200  0.51772882  0.75967018    -0.75800
O3243       O  0.45034823  0.48208164  0.67193944    -0.85300
O3244       O  0.42885853  0.51907234  0.67906867    -0.85000
O3245       O  0.43475357  0.45690230  0.59624748    -0.71800
O3246       O  0.41555250  0.49130933  0.60375844    -0.83900
Zr3247     Zr  0.44941120  0.53041018  0.53307107     2.26400
Zr3248     Zr  0.45837724  0.46689895  0.59545565     2.06300
Zr3249     Zr  0.41795056  0.53701746  0.60963271     2.10000
Zr3250     Zr  0.45242248  0.52778442  0.67740055     1.78800
O3251       O  0.39993503  0.55034661  0.55541224    -0.92700
O3252       O  0.47358001  0.51484032  0.71480785    -0.40500
O3253       O  0.44146479  0.54602496  0.60899179    -0.77200
O3254       O  0.46121345  0.51283775  0.60186461    -0.95800
O3255       O  0.44716631  0.48480529  0.52675437    -0.89200
O3256       O  0.42583808  0.52181509  0.53307853    -0.92000
C3257       C  0.43886064  0.50118685  0.77957144     1.01800
C3258       C  0.39443383  0.49910048  0.66725441     1.14700
C3259       C  0.44632038  0.41669169  0.66462324     1.05500
O3260       O  0.47831366  0.46143071  0.64548947    -0.94100
O3261       O  0.47705217  0.47860587  0.54332978    -0.89900
O3262       O  0.47227324  0.51821969  0.51228799    -0.83000
C3263       C  0.47993669  0.49862434  0.51818602     1.12100
O3264       O  0.40587159  0.44411166  0.53871151    -0.96100
Zr3265     Zr  0.42372091  0.47592344  0.52827650     1.88900
O3266       O  0.44339843  0.52094616  0.44918811    -0.72800
O3267       O  0.46376240  0.43224267  0.53922034    -0.52000
O3268       O  0.43040316  0.43458459  0.49388530    -0.96700
O3269       O  0.40246852  0.48812700  0.49050983    -0.53900
O3270       O  0.43002168  0.48539230  0.44622455    -0.73300
C3271       C  0.43699692  0.50317935  0.42638061     0.99100
O3272       O  0.46179288  0.56472945  0.49204426    -0.62100
O3273       O  0.41047324  0.56796537  0.67028907    -0.56900
O3274       O  0.44332285  0.57623309  0.53943248    -0.93600
O3275       O  0.42411732  0.58001393  0.58358329    -0.92000
O3276       O  0.44584272  0.56958780  0.71005280    -0.92400
O3277       O  0.47012120  0.56020201  0.67245232    -0.91200
C3278       C  0.43391346  0.58953691  0.55941142     1.17900
H3279       H  0.42463273  0.52555445  0.70798043     0.33800
H3280       H  0.47062325  0.51745691  0.60155070     0.44700
H3281       H  0.42137480  0.53049947  0.50670159     0.38200
H3282       H  0.43322861  0.43856307  0.59334146     0.34700
H3283       H  0.47395844  0.52455986  0.74553171     0.26500
H3284       H  0.47022145  0.42105006  0.55659798     0.32400
H3285       H  0.42639995  0.43431489  0.46119377     0.38300
H3286       H  0.44839336  0.56894846  0.74454888     0.32800
H3287       H  0.40233213  0.57604574  0.65631318     0.31700
H3288       H  0.39535167  0.56468369  0.57236619     0.33400
H3289       H  0.40471930  0.50223822  0.46783518     0.32300
H3290       H  0.46890118  0.56820376  0.64032110     0.36300
H3291       H  0.47013339  0.56738375  0.51097510     0.29100
H3292       H  0.41707367  0.43653099  0.74190846     0.33300
H3293       H  0.40372571  0.43778955  0.50589637     0.36100
H3294       H  0.40704806  0.55753411  0.69757117     0.28700
H3295       H  0.46482389  0.55730016  0.46096712     0.41600
H3296       H  0.48396245  0.47673849  0.63859386     0.31700
H3297       H  0.47218574  0.49668449  0.72475891     0.39300
H3298       H  0.39728001  0.49663023  0.51652800     0.31100
H3299       H  0.45542622  0.42184218  0.53690647     0.31200
H3300       H  0.41073352  0.42831072  0.69218891     0.31500
Zr3301     Zr  0.32226443  0.47351509  0.19545547     2.17500
O3302       O  0.33723273  0.44345889  0.15393959    -0.50900
O3303       O  0.31759380  0.48501186  0.11137951    -0.74100
O3304       O  0.31292134  0.42990619  0.18747314    -0.80900
O3305       O  0.35146531  0.52046989  0.22072300    -0.82600
O3306       O  0.29333787  0.42642518  0.22956141    -0.78200
O3307       O  0.34652737  0.48079863  0.19001426    -0.89900
O3308       O  0.30236522  0.51768965  0.10851215    -0.75800
O3309       O  0.29867897  0.48193933  0.19645916    -0.85300
O3310       O  0.32011758  0.51921599  0.18884060    -0.85000
O3311       O  0.31432362  0.45704389  0.27163747    -0.71800
O3312       O  0.33361517  0.49150005  0.26394604    -0.83900
Zr3313     Zr  0.29974213  0.53036166  0.33508740     2.26400
Zr3314     Zr  0.29068385  0.46682517  0.27309134     2.06300
Zr3315     Zr  0.33117319  0.53717273  0.25788575     2.10000
Zr3316     Zr  0.29652276  0.52758544  0.19088350     1.78800
O3317       O  0.34931384  0.54982326  0.31214474    -0.92700
O3318       O  0.27568707  0.51407421  0.15191024    -0.40500
O3319       O  0.30762355  0.54581779  0.25901055    -0.77200
O3320       O  0.28783576  0.51269341  0.26658001    -0.95800
O3321       O  0.30199397  0.48477457  0.34154687    -0.89200
O3322       O  0.32331678  0.52189515  0.33451186    -0.92000
C3323       C  0.31028978  0.50145293  0.08862782     1.01800
C3324       C  0.35471116  0.49925084  0.19999079     1.14700
C3325       C  0.30255100  0.41729528  0.20203913     1.05500
O3326       O  0.27008735  0.46051023  0.22696578    -0.94100
O3327       O  0.27194205  0.47877607  0.32501829    -0.89900
O3328       O  0.27684213  0.51832304  0.35620564    -0.83000
C3329       C  0.26909395  0.49882258  0.35022944     1.12100
O3330       O  0.34333273  0.44430285  0.32791804    -0.96100
Zr3331     Zr  0.32547624  0.47601857  0.33939770     1.88900
O3332       O  0.30613987  0.52133531  0.41882453    -0.72800
O3333       O  0.28674954  0.43162574  0.32966653    -0.52000
O3334       O  0.31912501  0.43443040  0.37358973    -0.96700
O3335       O  0.34691989  0.48875122  0.37516053    -0.53900
O3336       O  0.31929810  0.48548662  0.42165514    -0.73300
C3337       C  0.31249779  0.50349796  0.44159701     0.99100
O3338       O  0.28792041  0.56487594  0.37758210    -0.62100
O3339       O  0.33745709  0.56937316  0.19775424    -0.56900
O3340       O  0.30550045  0.57620327  0.32623191    -0.93600
O3341       O  0.32524078  0.58002576  0.28526642    -0.92000
O3342       O  0.30299989  0.56935406  0.15804895    -0.92400
O3343       O  0.27861937  0.55948221  0.19812964    -0.91200
C3344       C  0.31512494  0.58953042  0.30767999     1.17900
H3345       H  0.32429896  0.52579848  0.15992152     0.33800
H3346       H  0.27842470  0.51730695  0.26701038     0.44700
H3347       H  0.32781810  0.53055468  0.36083258     0.38200
H3348       H  0.31583151  0.43869817  0.27433806     0.34700
H3349       H  0.27472617  0.52567961  0.12374412     0.26500
H3350       H  0.27915984  0.42174488  0.31568980     0.32400
H3351       H  0.32339470  0.43399408  0.40583697     0.38300
H3352       H  0.29808097  0.57067852  0.12709259     0.32800
H3353       H  0.34502997  0.57898899  0.21243805     0.31700
H3354       H  0.35399421  0.56408203  0.29529729     0.33400
H3355       H  0.34461052  0.50088656  0.40146059     0.32300
H3356       H  0.27991779  0.56714056  0.23051837     0.36300
H3357       H  0.27975217  0.56846398  0.35823618     0.29100
H3358       H  0.33206763  0.43677041  0.12607310     0.33300
H3359       H  0.34564497  0.43793631  0.36055132     0.36100
H3360       H  0.34159467  0.55961456  0.17088410     0.28700
H3361       H  0.28454212  0.55712095  0.40790866     0.41600
H3362       H  0.26588694  0.47782032  0.22548310     0.31700
H3363       H  0.27773051  0.49698436  0.13769601     0.39300
H3364       H  0.35127789  0.49964549  0.35032183     0.31100
H3365       H  0.29464264  0.42011423  0.32617645     0.31200
H3366       H  0.33834600  0.42851159  0.17586353     0.31500
Zr3367     Zr  0.32247005  0.47383292  0.69588890     2.17500
O3368       O  0.33781056  0.44364330  0.65655987    -0.50900
O3369       O  0.31764265  0.48503123  0.61165400    -0.74100
O3370       O  0.31330951  0.43003436  0.68730220    -0.80900
O3371       O  0.35170769  0.52054075  0.72326165    -0.82600
O3372       O  0.29403059  0.42610201  0.73099270    -0.78200
O3373       O  0.34662037  0.48179047  0.68902970    -0.89900
O3374       O  0.30272039  0.51823900  0.60856680    -0.75800
O3375       O  0.29887350  0.48222193  0.69624946    -0.85300
O3376       O  0.32035487  0.51963495  0.68968506    -0.85000
O3377       O  0.31450326  0.45717709  0.77196594    -0.71800
O3378       O  0.33377353  0.49156327  0.76487018    -0.83900
Zr3379     Zr  0.29970216  0.53033334  0.83506386     2.26400
Zr3380     Zr  0.29083987  0.46685943  0.77263638     2.06300
Zr3381     Zr  0.33132803  0.53725771  0.75929237     2.10000
Zr3382     Zr  0.29672431  0.52792684  0.69103727     1.78800
O3383       O  0.34833541  0.55029592  0.81777973    -0.92700
O3384       O  0.27566014  0.51557945  0.65234026    -0.40500
O3385       O  0.30779607  0.54594315  0.75930005    -0.77200
O3386       O  0.28794407  0.51268318  0.76623286    -0.95800
O3387       O  0.30199149  0.48471545  0.84156118    -0.89200
O3388       O  0.32328431  0.52190370  0.83556720    -0.92000
C3389       C  0.31048715  0.50167191  0.58873966     1.01800
C3390       C  0.35485396  0.49985358  0.70065868     1.14700
C3391       C  0.30312152  0.41717280  0.70279211     1.05500
O3392       O  0.27087472  0.46003026  0.72332844    -0.94100
O3393       O  0.27181594  0.47905192  0.82299261    -0.89900
O3394       O  0.27677595  0.51825526  0.85552891    -0.83000
C3395       C  0.26897051  0.49893737  0.84863530     1.12100
O3396       O  0.34298204  0.44343674  0.83024254    -0.96100
Zr3397     Zr  0.32549069  0.47604972  0.84018940     1.88900
O3398       O  0.30574876  0.52129290  0.91900047    -0.72800
O3399       O  0.28575031  0.43205392  0.82884069    -0.52000
O3400       O  0.31898693  0.43515548  0.87695737    -0.96700
O3401       O  0.34692052  0.48874142  0.87608206    -0.53900
O3402       O  0.31947049  0.48624180  0.92214402    -0.73300
C3403       C  0.31238954  0.50389407  0.94186710     0.99100
O3404       O  0.28747073  0.56495728  0.87568655    -0.62100
O3405       O  0.33994458  0.56900688  0.70208273    -0.56900
O3406       O  0.30575173  0.57612694  0.82875409    -0.93600
O3407       O  0.32461686  0.58025383  0.78286654    -0.92000
O3408       O  0.30221086  0.57030327  0.65843608    -0.92400
O3409       O  0.27874625  0.55924150  0.70276013    -0.91200
C3410       C  0.31492940  0.58958000  0.80779257     1.17900
H3411       H  0.32458108  0.52626361  0.66088582     0.33800
H3412       H  0.27853142  0.51723233  0.76639281     0.44700
H3413       H  0.32763891  0.53054205  0.86220460     0.38200
H3414       H  0.31607580  0.43886168  0.77467074     0.34700
H3415       H  0.27518897  0.52633645  0.62286940     0.26500
H3416       H  0.27897314  0.42127236  0.81209357     0.32400
H3417       H  0.32390504  0.43451427  0.90799581     0.38300
H3418       H  0.29784540  0.57074691  0.62634462     0.32800
H3419       H  0.34868750  0.57463789  0.71561245     0.31700
H3420       H  0.35359048  0.56395523  0.80138814     0.33400
H3421       H  0.34465839  0.50181983  0.90081108     0.32300
H3422       H  0.28031909  0.56623929  0.73552109     0.36300
H3423       H  0.27910611  0.56755504  0.85687570     0.29100
H3424       H  0.33283618  0.43648470  0.62865792     0.33300
H3425       H  0.34593893  0.43881336  0.86323799     0.36100
H3426       H  0.34234661  0.55917491  0.67270324     0.28700
H3427       H  0.28447419  0.55767939  0.90692798     0.41600
H3428       H  0.26653804  0.47720138  0.72142885     0.31700
H3429       H  0.27720904  0.49784611  0.64026174     0.39300
H3430       H  0.35158099  0.49856706  0.85041597     0.31100
H3431       H  0.29398549  0.42130480  0.82957579     0.31200
H3432       H  0.33890289  0.42901356  0.67923693     0.31500
Zr3433     Zr  0.42666944  0.28436531  0.19556206     2.17500
O3434       O  0.41194666  0.31450569  0.15319670    -0.50900
O3435       O  0.43158889  0.27310558  0.11148137    -0.74100
O3436       O  0.43589894  0.32820780  0.18877919    -0.80900
O3437       O  0.39736979  0.23752799  0.22069105    -0.82600
O3438       O  0.45545357  0.33144219  0.23105898    -0.78200
O3439       O  0.40246842  0.27672544  0.18827747    -0.89900
O3440       O  0.44649337  0.23988783  0.10887759    -0.75800
O3441       O  0.45024188  0.27581939  0.19698685    -0.85300
O3442       O  0.42874071  0.23863757  0.18909343    -0.85000
O3443       O  0.43439414  0.30061230  0.27223533    -0.71800
O3444       O  0.41515900  0.26635593  0.26383511    -0.83900
Zr3445     Zr  0.44900886  0.22720544  0.33530819     2.26400
Zr3446     Zr  0.45800766  0.29086535  0.27402645     2.06300
Zr3447     Zr  0.41757127  0.22070416  0.25789229     2.10000
Zr3448     Zr  0.45232853  0.23012776  0.19128113     1.78800
O3449       O  0.39968319  0.20906045  0.31399061    -0.92700
O3450       O  0.47348728  0.24318933  0.15407821    -0.40500
O3451       O  0.44109650  0.21191567  0.25906962    -0.77200
O3452       O  0.46091841  0.24504063  0.26701795    -0.95800
O3453       O  0.44668218  0.27277200  0.34230439    -0.89200
O3454       O  0.42542018  0.23565250  0.33469499    -0.92000
C3455       C  0.43872653  0.25634502  0.08884539     1.01800
C3456       C  0.39422485  0.25848280  0.19893688     1.14700
C3457       C  0.44627439  0.34073711  0.20360752     1.05500
O3458       O  0.47875789  0.29771405  0.22917543    -0.94100
O3459       O  0.47669312  0.27888280  0.32601689    -0.89900
O3460       O  0.47203743  0.23889880  0.35567802    -0.83000
C3461       C  0.47968713  0.25860307  0.35029075     1.12100
O3462       O  0.40565332  0.31365520  0.32675605    -0.96100
Zr3463     Zr  0.42320235  0.28149690  0.33976250     1.88900
O3464       O  0.44287973  0.23643737  0.41914384    -0.72800
O3465       O  0.46167275  0.32599550  0.33089884    -0.52000
O3466       O  0.42971879  0.32265701  0.37525335    -0.96700
O3467       O  0.40176805  0.26963840  0.37656411    -0.53900
O3468       O  0.42912489  0.27145642  0.42206895    -0.73300
C3469       C  0.43624764  0.25387974  0.44194450     0.99100
O3470       O  0.46083039  0.19248867  0.37720163    -0.62100
O3471       O  0.41021754  0.18875560  0.19882172    -0.56900
O3472       O  0.44298706  0.18145920  0.32753131    -0.93600
O3473       O  0.42386000  0.17766527  0.28289165    -0.92000
O3474       O  0.44642440  0.18878113  0.15517339    -0.92400
O3475       O  0.46990033  0.19784312  0.20196569    -0.91200
C3476       C  0.43366348  0.16816284  0.30703087     1.17900
H3477       H  0.42457339  0.23211795  0.16011745     0.33800
H3478       H  0.47033406  0.24048946  0.26732599     0.44700
H3479       H  0.42094644  0.22692610  0.36100322     0.38200
H3480       H  0.43286981  0.31895004  0.27512123     0.34700
H3481       H  0.47396906  0.23317365  0.12371063     0.26500
H3482       H  0.46901164  0.33639187  0.31652778     0.32400
H3483       H  0.42489730  0.32342756  0.40645946     0.38300
H3484       H  0.45183196  0.18786116  0.12522385     0.32800
H3485       H  0.40188652  0.18127804  0.21254106     0.31700
H3486       H  0.39342983  0.19822577  0.29493641     0.33400
H3487       H  0.40392991  0.25590219  0.40013027     0.32300
H3488       H  0.46730307  0.18845733  0.23165682     0.36300
H3489       H  0.46915537  0.18935752  0.35845157     0.29100
H3490       H  0.41737896  0.32187539  0.12661310     0.33300
H3491       H  0.40292967  0.31959753  0.35925594     0.36100
H3492       H  0.40714214  0.19871941  0.17041724     0.28700
H3493       H  0.46393106  0.19997746  0.40814042     0.41600
H3494       H  0.48269339  0.28026864  0.22553570     0.31700
H3495       H  0.47201419  0.26122191  0.14351209     0.39300
H3496       H  0.39676157  0.26067596  0.35061918     0.31100
H3497       H  0.45357373  0.33702326  0.32808717     0.31200
H3498       H  0.41038653  0.32901148  0.17579455     0.31500
Zr3499     Zr  0.42677438  0.28405282  0.69596069     2.17500
O3500       O  0.41169667  0.31385593  0.65433808    -0.50900
O3501       O  0.43158823  0.27281344  0.61184547    -0.74100
O3502       O  0.43604366  0.32775230  0.68789660    -0.80900
O3503       O  0.39738626  0.23769416  0.72403196    -0.82600
O3504       O  0.45556773  0.33132421  0.73029722    -0.78200
O3505       O  0.40253199  0.27637089  0.68965860    -0.89900
O3506       O  0.44676091  0.24005754  0.60856263    -0.75800
O3507       O  0.45035499  0.27555991  0.69648327    -0.85300
O3508       O  0.42890416  0.23830730  0.68942480    -0.85000
O3509       O  0.43469270  0.30057576  0.77227190    -0.71800
O3510       O  0.41547245  0.26623014  0.76468694    -0.83900
Zr3511     Zr  0.44939162  0.22712473  0.83511149     2.26400
Zr3512     Zr  0.45835407  0.29069910  0.77311146     2.06300
Zr3513     Zr  0.41783627  0.22054969  0.75867120     2.10000
Zr3514     Zr  0.45253337  0.22991226  0.69091675     1.78800
O3515       O  0.40004392  0.20780474  0.81430142    -0.92700
O3516       O  0.47378468  0.24393075  0.65554726    -0.40500
O3517       O  0.44137321  0.21181591  0.75906130    -0.77200
O3518       O  0.46127702  0.24480291  0.76656583    -0.95800
O3519       O  0.44713507  0.27269735  0.84175560    -0.89200
O3520       O  0.42580807  0.23556436  0.83529696    -0.92000
C3521       C  0.43884726  0.25639250  0.58885893     1.01800
C3522       C  0.39424502  0.25840874  0.70152919     1.14700
C3523       C  0.44638892  0.34042090  0.70256451     1.05500
O3524       O  0.47868699  0.29711051  0.72550141    -0.94100
O3525       O  0.47702562  0.27885040  0.82531512    -0.89900
O3526       O  0.47219849  0.23925793  0.85638911    -0.83000
C3527       C  0.47987318  0.25884043  0.85057574     1.12100
O3528       O  0.40569158  0.31316925  0.83262020    -0.96100
Zr3529     Zr  0.42366559  0.28142021  0.84029474     1.88900
O3530       O  0.44332842  0.23614253  0.91911119    -0.72800
O3531       O  0.46310740  0.32547474  0.82975727    -0.52000
O3532       O  0.43039234  0.32237413  0.87628549    -0.96700
O3533       O  0.40227664  0.26846884  0.87617401    -0.53900
O3534       O  0.42961522  0.27118606  0.92225114    -0.73300
C3535       C  0.43668548  0.25353895  0.94199762     0.99100
O3536       O  0.46153462  0.19247355  0.87610348    -0.62100
O3537       O  0.40997798  0.18950526  0.69871291    -0.56900
O3538       O  0.44357219  0.18133936  0.82743735    -0.93600
O3539       O  0.42429984  0.17757508  0.78361906    -0.92000
O3540       O  0.44684986  0.18879852  0.65344148    -0.92400
O3541       O  0.46983669  0.19683675  0.69858268    -0.91200
C3542       C  0.43419171  0.16806020  0.80727471     1.17900
H3543       H  0.42470433  0.23175811  0.66050382     0.33800
H3544       H  0.47069648  0.24023830  0.76698643     0.44700
H3545       H  0.42136762  0.22686008  0.86167944     0.38200
H3546       H  0.43318367  0.31891396  0.77503623     0.34700
H3547       H  0.47519845  0.23233701  0.62761194     0.26500
H3548       H  0.47013817  0.33602123  0.81386885     0.32400
H3549       H  0.42604831  0.32266472  0.90841527     0.38300
H3550       H  0.43983121  0.18128050  0.67454864     0.32800
H3551       H  0.40187192  0.18154260  0.71319034     0.31700
H3552       H  0.39571456  0.19267457  0.79896812     0.33400
H3553       H  0.40462322  0.25657295  0.90280995     0.32300
H3554       H  0.46927946  0.19115556  0.73262024     0.36300
H3555       H  0.46993755  0.18985178  0.85752927     0.29100
H3556       H  0.41686547  0.32070053  0.62662191     0.33300
H3557       H  0.40357405  0.31875656  0.86592462     0.36100
H3558       H  0.40648490  0.19988180  0.67146390     0.28700
H3559       H  0.46447814  0.19973342  0.90743115     0.41600
H3560       H  0.48355695  0.28047315  0.72745110     0.31700
H3561       H  0.47182812  0.26095895  0.64093805     0.39300
H3562       H  0.39798908  0.25732356  0.85157744     0.31100
H3563       H  0.45495633  0.33645735  0.82929357     0.31200
H3564       H  0.41048113  0.32873699  0.67635095     0.31500
Zr3565     Zr  0.32194443  0.28433455  0.17340161     2.17500
O3566       O  0.33686761  0.31387836  0.21645228    -0.50900
O3567       O  0.31699441  0.27295589  0.25740005    -0.74100
O3568       O  0.31272575  0.32817660  0.18050013    -0.80900
O3569       O  0.35119816  0.23786747  0.14599398    -0.82600
O3570       O  0.29343668  0.33198469  0.13674921    -0.78200
O3571       O  0.34624969  0.27707529  0.17861795    -0.89900
O3572       O  0.30182076  0.24017301  0.26061588    -0.75800
O3573       O  0.29837501  0.27586005  0.17213488    -0.85300
O3574       O  0.31973734  0.23861595  0.17994378    -0.85000
O3575       O  0.31413060  0.30069041  0.09693073    -0.71800
O3576       O  0.33323301  0.26627248  0.10486557    -0.83900
Zr3577     Zr  0.29935088  0.22728981  0.03401458     2.26400
Zr3578     Zr  0.29047804  0.29103534  0.09542115     2.06300
Zr3579     Zr  0.33079765  0.22065788  0.11097431     2.10000
Zr3580     Zr  0.29614088  0.23021668  0.17803122     1.78800
O3581       O  0.34923563  0.20858404  0.05771958    -0.92700
O3582       O  0.27522762  0.24363168  0.21660233    -0.40500
O3583       O  0.30728320  0.21188052  0.11010565    -0.77200
O3584       O  0.28749159  0.24521461  0.10239483    -0.95800
O3585       O  0.30170043  0.27283303  0.02707531    -0.89200
O3586       O  0.32293917  0.23560794  0.03420590    -0.92000
C3587       C  0.30970527  0.25656150  0.28035380     1.01800
C3588       C  0.35445278  0.25884500  0.16745285     1.14700
C3589       C  0.30254262  0.34101085  0.16484696     1.05500
O3590       O  0.27007651  0.29839012  0.14210715    -0.94100
O3591       O  0.27153108  0.27904492  0.04471553    -0.89900
O3592       O  0.27647104  0.23959798  0.01316789    -0.83000
C3593       C  0.26872189  0.25906955  0.01928752     1.12100
O3594       O  0.34335656  0.31265166  0.03948370    -0.96100
Zr3595     Zr  0.32518363  0.28148862  0.02915057     1.88900
O3596       O  0.30568233  0.23627854  0.95027973    -0.72800
O3597       O  0.28660899  0.32500351  0.03628248    -0.52000
O3598       O  0.31893750  0.32301626  0.99437337    -0.96700
O3599       O  0.34629465  0.26860461  0.99121422    -0.53900
O3600       O  0.31904793  0.27182048  0.94717531    -0.73300
C3601       C  0.31215172  0.25391799  0.92741369     0.99100
O3602       O  0.28753897  0.19335209  0.99000898    -0.62100
O3603       O  0.33764774  0.18954731  0.17224008    -0.56900
O3604       O  0.30501107  0.18133683  0.04287070    -0.93600
O3605       O  0.32477054  0.17774932  0.08386253    -0.92000
O3606       O  0.30207872  0.18880717  0.21372918    -0.92400
O3607       O  0.27876877  0.19769054  0.16574173    -0.91200
C3608       C  0.31467162  0.16810078  0.06149547     1.17900
H3609       H  0.32388425  0.23206857  0.20897754     0.33800
H3610       H  0.27805741  0.24070043  0.10211085     0.44700
H3611       H  0.32737232  0.22676111  0.00804775     0.38200
H3612       H  0.31572451  0.31899782  0.09396230     0.34700
H3613       H  0.27384964  0.23106756  0.24306141     0.26500
H3614       H  0.27877170  0.33471813  0.04878673     0.32400
H3615       H  0.32237661  0.32257368  0.96087606     0.38300
H3616       H  0.29731018  0.18845475  0.24507373     0.32800
H3617       H  0.34552291  0.18061156  0.15813911     0.31700
H3618       H  0.35228476  0.19157118  0.06974012     0.33400
H3619       H  0.34405828  0.25365914  0.97047300     0.32300
H3620       H  0.28124010  0.18925988  0.13492680     0.36300
H3621       H  0.27909115  0.19023906  0.00804136     0.29100
H3622       H  0.33155146  0.32067573  0.24384926     0.33300
H3623       H  0.34562938  0.31873679  0.00662198     0.36100
H3624       H  0.34143191  0.19989186  0.19903273     0.28700
H3625       H  0.28465940  0.20128286  0.95918228     0.41600
H3626       H  0.27311443  0.29887841  0.17610382     0.31700
H3627       H  0.27744023  0.26000366  0.23324174     0.39300
H3628       H  0.35172364  0.26121587  0.01778746     0.31100
H3629       H  0.29431411  0.33696448  0.03997883     0.31200
H3630       H  0.33823121  0.32882198  0.19470601     0.31500
Zr3631     Zr  0.32210258  0.28434283  0.67383559     2.17500
O3632       O  0.33653725  0.31388047  0.71913823    -0.50900
O3633       O  0.31747952  0.27252767  0.75781456    -0.74100
O3634       O  0.31300836  0.32814277  0.68104919    -0.80900
O3635       O  0.35129838  0.23796977  0.64703800    -0.82600
O3636       O  0.29343754  0.33179276  0.63900291    -0.78200
O3637       O  0.34636539  0.27722466  0.67947614    -0.89900
O3638       O  0.30189007  0.24049715  0.76063226    -0.75800
O3639       O  0.29850787  0.27591284  0.67299617    -0.85300
O3640       O  0.31995973  0.23856584  0.67971650    -0.85000
O3641       O  0.31425269  0.30100044  0.59747451    -0.71800
O3642       O  0.33348787  0.26674262  0.60496376    -0.83900
Zr3643     Zr  0.29952095  0.22775593  0.53396697     2.26400
Zr3644     Zr  0.29057562  0.29120667  0.59629565     2.06300
Zr3645     Zr  0.33103689  0.22097283  0.61036481     2.10000
Zr3646     Zr  0.29636053  0.23021658  0.67810727     1.78800
O3647       O  0.34894341  0.20850488  0.55502054    -0.92700
O3648       O  0.27494427  0.24379581  0.71263533    -0.40500
O3649       O  0.30751531  0.21207304  0.60989949    -0.77200
O3650       O  0.28766673  0.24532556  0.60270727    -0.95800
O3651       O  0.30180147  0.27334576  0.52758323    -0.89200
O3652       O  0.32309878  0.23618639  0.53381595    -0.92000
C3653       C  0.31000490  0.25637686  0.78056464     1.01800
C3654       C  0.35453768  0.25888668  0.66876582     1.14700
C3655       C  0.30271692  0.34088220  0.66626985     1.05500
O3656       O  0.27003834  0.29766995  0.64264082    -0.94100
O3657       O  0.27183383  0.27918878  0.54419203    -0.89900
O3658       O  0.27640393  0.23906814  0.51502736    -0.83000
C3659       C  0.26879666  0.25881621  0.52015137     1.12100
O3660       O  0.34253534  0.31535663  0.53652745    -0.96100
Zr3661     Zr  0.32528713  0.28204905  0.52931189     1.88900
O3662       O  0.30537181  0.23747176  0.45016269    -0.72800
O3663       O  0.28628303  0.32666289  0.54065449    -0.52000
O3664       O  0.31872108  0.32224225  0.49023177    -0.96700
O3665       O  0.34709292  0.26907324  0.49712591    -0.53900
O3666       O  0.31953065  0.27184349  0.44698413    -0.73300
C3667       C  0.31217899  0.25458845  0.42724310     0.99100
O3668       O  0.28812265  0.19405096  0.48790668    -0.62100
O3669       O  0.33875014  0.18898206  0.66868748    -0.56900
O3670       O  0.30538328  0.18190122  0.54079269    -0.93600
O3671       O  0.32472000  0.17801804  0.58412385    -0.92000
O3672       O  0.30191274  0.18949458  0.71727002    -0.92400
O3673       O  0.27945972  0.19665275  0.66730289    -0.91200
C3674       C  0.31484317  0.16853973  0.56026863     1.17900
H3675       H  0.32413003  0.23191516  0.70862543     0.33800
H3676       H  0.27824915  0.24076157  0.60267988     0.44700
H3677       H  0.32751541  0.22750982  0.50738486     0.38200
H3678       H  0.31580657  0.31932157  0.59460514     0.34700
H3679       H  0.27329881  0.23160611  0.73949793     0.26500
H3680       H  0.27895391  0.33674631  0.55583472     0.32400
H3681       H  0.30965085  0.31881924  0.47688238     0.38300
H3682       H  0.29644161  0.18927323  0.74712477     0.32800
H3683       H  0.34750862  0.18293870  0.65595671     0.31700
H3684       H  0.35096496  0.19029994  0.56309999     0.33400
H3685       H  0.34507046  0.25609674  0.47193935     0.32300
H3686       H  0.28075642  0.19063314  0.63372712     0.36300
H3687       H  0.28003910  0.18941614  0.50690662     0.29100
H3688       H  0.33089168  0.32111159  0.74528284     0.33300
H3689       H  0.34508157  0.31991066  0.50305244     0.36100
H3690       H  0.34109323  0.19880920  0.69813586     0.28700
H3691       H  0.28457815  0.20259508  0.45856952     0.41600
H3692       H  0.26559185  0.28056549  0.64293313     0.31700
H3693       H  0.27688484  0.26045019  0.72871779     0.39300
H3694       H  0.35135058  0.25911178  0.52348656     0.31100
H3695       H  0.29431034  0.33792056  0.54305503     0.31200
H3696       H  0.33840911  0.32858312  0.69729932     0.31500
Zr3697     Zr  0.42647642  0.78446063  0.94496616     2.17500
O3698       O  0.41152426  0.81419523  0.90240597    -0.50900
O3699       O  0.43113096  0.77321153  0.86067225    -0.74100
O3700       O  0.43556362  0.82835525  0.93753261    -0.80900
O3701       O  0.39753779  0.73674177  0.97123784    -0.82600
O3702       O  0.45514691  0.83184186  0.97965485    -0.78200
O3703       O  0.40228145  0.77631792  0.93972290    -0.89900
O3704       O  0.44656117  0.74092763  0.85735367    -0.75800
O3705       O  0.45006623  0.77610674  0.94554086    -0.85300
O3706       O  0.42868660  0.73876556  0.93842612    -0.85000
O3707       O  0.43446328  0.80094170  0.02119220    -0.71800
O3708       O  0.41531832  0.76630049  0.01379910    -0.83900
Zr3709     Zr  0.44943903  0.72767394  0.08413527     2.26400
Zr3710     Zr  0.45814133  0.79121426  0.02215906     2.06300
Zr3711     Zr  0.41793768  0.72058425  0.00793239     2.10000
Zr3712     Zr  0.45226810  0.73048544  0.93960111     1.78800
O3713       O  0.39998932  0.70862806  0.06351106    -0.92700
O3714       O  0.47347218  0.74367728  0.90293949    -0.40500
O3715       O  0.44148612  0.71204820  0.00823361    -0.77200
O3716       O  0.46109278  0.74537052  0.01507137    -0.95800
O3717       O  0.44704331  0.77324747  0.09107150    -0.89200
O3718       O  0.42585184  0.73591549  0.08439122    -0.92000
C3719       C  0.43849546  0.75696796  0.83765231     1.01800
C3720       C  0.39419279  0.75779162  0.95020471     1.14700
C3721       C  0.44590688  0.84101261  0.95229143     1.05500
O3722       O  0.47857812  0.79903538  0.97592931    -0.94100
O3723       O  0.47725440  0.77884855  0.07209416    -0.89900
O3724       O  0.47247051  0.73927061  0.10321491    -0.83000
C3725       C  0.48021947  0.75867959  0.09677681     1.12100
O3726       O  0.40604835  0.81459291  0.08081961    -0.96100
Zr3727     Zr  0.42353348  0.78181178  0.08925009     1.88900
O3728       O  0.44355800  0.73726786  0.16793312    -0.72800
O3729       O  0.46240956  0.82561589  0.08006142    -0.52000
O3730       O  0.43050552  0.82278584  0.12453952    -0.96700
O3731       O  0.40203834  0.76946288  0.12496051    -0.53900
O3732       O  0.42946526  0.77174491  0.17134114    -0.73300
C3733       C  0.43679381  0.75441969  0.19091866     0.99100
O3734       O  0.46139992  0.69390073  0.12818978    -0.62100
O3735       O  0.41086507  0.68816835  0.94938116    -0.56900
O3736       O  0.44366179  0.68171953  0.07769916    -0.93600
O3737       O  0.42449598  0.67764706  0.03344097    -0.92000
O3738       O  0.44526544  0.68979709  0.90346999    -0.92400
O3739       O  0.46964238  0.69748434  0.94558132    -0.91200
C3740       C  0.43433914  0.66824889  0.05757354     1.17900
H3741       H  0.42446021  0.73219380  0.90958060     0.33800
H3742       H  0.47050666  0.74082168  0.01485662     0.44700
H3743       H  0.42147214  0.72715424  0.11083104     0.38200
H3744       H  0.43290347  0.81925149  0.02414147     0.34700
H3745       H  0.47424629  0.73304946  0.87338678     0.26500
H3746       H  0.47060348  0.83434754  0.06791656     0.32400
H3747       H  0.42627044  0.82322436  0.15684586     0.38300
H3748       H  0.45094763  0.68793477  0.87434102     0.32800
H3749       H  0.40253255  0.68065912  0.96302248     0.31700
H3750       H  0.39441928  0.69605818  0.04547883     0.33400
H3751       H  0.40411978  0.75498424  0.14702289     0.32300
H3752       H  0.46969977  0.69253556  0.98006950     0.36300
H3753       H  0.46956301  0.69004652  0.10901126     0.29100
H3754       H  0.41687242  0.82155780  0.87559098     0.33300
H3755       H  0.40376133  0.82008437  0.11403558     0.36100
H3756       H  0.40780986  0.69793055  0.92071197     0.28700
H3757       H  0.46477983  0.70209705  0.15812349     0.41600
H3758       H  0.48324820  0.78216057  0.97508837     0.31700
H3759       H  0.47182675  0.76138805  0.89089453     0.39300
H3760       H  0.39695291  0.76142675  0.09816678     0.31100
H3761       H  0.45508220  0.83826912  0.07495230     0.31200
H3762       H  0.40991945  0.82878057  0.92477946     0.31500
Zr3763     Zr  0.42699332  0.78422080  0.44402871     2.17500
O3764       O  0.41182916  0.81405948  0.40289025    -0.50900
O3765       O  0.43193387  0.77299773  0.36022377    -0.74100
O3766       O  0.43639969  0.82780718  0.43546728    -0.80900
O3767       O  0.39753045  0.73785726  0.47066364    -0.82600
O3768       O  0.45571693  0.83143358  0.47909508    -0.78200
O3769       O  0.40267178  0.77694136  0.43790623    -0.89900
O3770       O  0.44686690  0.73981882  0.35759399    -0.75800
O3771       O  0.45056955  0.77544427  0.44522898    -0.85300
O3772       O  0.42899904  0.73843451  0.43773252    -0.85000
O3773       O  0.43488346  0.80074456  0.52028153    -0.71800
O3774       O  0.41560966  0.76651718  0.51257349    -0.83900
Zr3775     Zr  0.44922958  0.72719410  0.58424788     2.26400
Zr3776     Zr  0.45848763  0.79068534  0.52187318     2.06300
Zr3777     Zr  0.41782158  0.72086716  0.50685724     2.10000
Zr3778     Zr  0.45257782  0.72972130  0.44004628     1.78800
O3779       O  0.39977849  0.70945337  0.56235355    -0.92700
O3780       O  0.47374123  0.74226095  0.40224408    -0.40500
O3781       O  0.44130829  0.71178904  0.50806848    -0.77200
O3782       O  0.46120977  0.74475204  0.51576658    -0.95800
O3783       O  0.44713655  0.77284881  0.59042158    -0.89200
O3784       O  0.42569802  0.73598276  0.58352332    -0.92000
C3785       C  0.43913331  0.75636794  0.33760932     1.01800
C3786       C  0.39437798  0.75882245  0.44898499     1.14700
C3787       C  0.44662745  0.84055990  0.45096363     1.05500
O3788       O  0.47903242  0.79595483  0.47506882    -0.94100
O3789       O  0.47714170  0.77866825  0.57409752    -0.89900
O3790       O  0.47214794  0.73923047  0.60558337    -0.83000
C3791       C  0.47993599  0.75867356  0.59950302     1.12100
O3792       O  0.40589442  0.81370117  0.57634465    -0.96100
Zr3793     Zr  0.42369177  0.78190391  0.58814375     1.88900
O3794       O  0.44261782  0.73604816  0.66795491    -0.72800
O3795       O  0.46299272  0.82579371  0.57810250    -0.52000
O3796       O  0.43037239  0.82313272  0.62311458    -0.96700
O3797       O  0.40213746  0.77015097  0.62410471    -0.53900
O3798       O  0.42941606  0.77183810  0.67051908    -0.73300
C3799       C  0.43618068  0.75383777  0.69061379     0.99100
O3800       O  0.46114864  0.69303893  0.62738087    -0.62100
O3801       O  0.41043419  0.68923539  0.44736037    -0.56900
O3802       O  0.44329011  0.68137463  0.57518087    -0.93600
O3803       O  0.42381935  0.67777341  0.53243144    -0.92000
O3804       O  0.44670899  0.68831027  0.40409273    -0.92400
O3805       O  0.46997186  0.69708289  0.45068093    -0.91200
C3806       C  0.43378271  0.66814562  0.55553704     1.17900
H3807       H  0.42484185  0.73190242  0.40872949     0.33800
H3808       H  0.47061038  0.74008673  0.51636305     0.44700
H3809       H  0.42118442  0.72734578  0.60980484     0.38200
H3810       H  0.43340073  0.81909577  0.52287168     0.34700
H3811       H  0.47471066  0.73047825  0.37433384     0.26500
H3812       H  0.47089151  0.83488691  0.56447435     0.32400
H3813       H  0.42641388  0.82321546  0.65587592     0.38300
H3814       H  0.45181324  0.68770892  0.37343588     0.32800
H3815       H  0.40183185  0.68246156  0.46016728     0.31700
H3816       H  0.39529337  0.69442943  0.54723462     0.33400
H3817       H  0.40399758  0.75489692  0.64452450     0.32300
H3818       H  0.46944463  0.69232356  0.48521695     0.36300
H3819       H  0.46957406  0.69002329  0.60915302     0.29100
H3820       H  0.41682940  0.82040721  0.37437232     0.33300
H3821       H  0.40381906  0.82059341  0.60880955     0.36100
H3822       H  0.40781713  0.69931914  0.41852267     0.28700
H3823       H  0.46406048  0.70076496  0.65835440     0.41600
H3824       H  0.48286845  0.77836109  0.47279329     0.31700
H3825       H  0.47194759  0.75935536  0.38763610     0.39300
H3826       H  0.39674417  0.76331702  0.59691171     0.31100
H3827       H  0.45541460  0.83800379  0.57396579     0.31200
H3828       H  0.41092774  0.82922735  0.42439881     0.31500
Zr3829     Zr  0.32196400  0.78433520  0.42346738     2.17500
O3830       O  0.33687950  0.81398208  0.46624383    -0.50900
O3831       O  0.31708858  0.77277216  0.50749871    -0.74100
O3832       O  0.31265690  0.82804809  0.43126733    -0.80900
O3833       O  0.35125319  0.73773945  0.39753772    -0.82600
O3834       O  0.29317894  0.83148713  0.38855667    -0.78200
O3835       O  0.34627897  0.77719614  0.42901502    -0.89900
O3836       O  0.30184560  0.74009379  0.51035977    -0.75800
O3837       O  0.29838246  0.77565136  0.42228565    -0.85300
O3838       O  0.31989883  0.73858388  0.42984843    -0.85000
O3839       O  0.31413421  0.80084960  0.34704668    -0.71800
O3840       O  0.33332995  0.76659215  0.35471370    -0.83900
Zr3841     Zr  0.29947240  0.72713924  0.28388244     2.26400
Zr3842     Zr  0.29050559  0.79088398  0.34551089     2.06300
Zr3843     Zr  0.33100281  0.72087811  0.36071325     2.10000
Zr3844     Zr  0.29631801  0.72993360  0.42785833     1.78800
O3845       O  0.34884398  0.70967721  0.30426301    -0.92700
O3846       O  0.27491631  0.74218687  0.46421625    -0.40500
O3847       O  0.30750753  0.71179014  0.35989512    -0.77200
O3848       O  0.28761926  0.74499046  0.35247281    -0.95800
O3849       O  0.30165441  0.77275699  0.27681705    -0.89200
O3850       O  0.32301510  0.73583299  0.28412031    -0.92000
C3851       C  0.30974818  0.75637416  0.53027157     1.01800
C3852       C  0.35449236  0.75886306  0.41853715     1.14700
C3853       C  0.30232792  0.84067312  0.41632109     1.05500
O3854       O  0.26984432  0.79930329  0.38995820    -0.94100
O3855       O  0.27162170  0.77825528  0.29484913    -0.89900
O3856       O  0.27629108  0.73827337  0.26515404    -0.83000
C3857       C  0.26861799  0.75790805  0.27074371     1.12100
O3858       O  0.34265480  0.81436859  0.28647442    -0.96100
Zr3859     Zr  0.32510324  0.78170922  0.27895333     1.88900
O3860       O  0.30576527  0.73615019  0.20003460    -0.72800
O3861       O  0.28675674  0.82542551  0.28744104    -0.52000
O3862       O  0.31783705  0.82240178  0.24336746    -0.96700
O3863       O  0.34648878  0.76932987  0.24242948    -0.53900
O3864       O  0.31936397  0.77134783  0.19683581    -0.73300
C3865       C  0.31239899  0.75354045  0.17709541     0.99100
O3866       O  0.28805592  0.69329668  0.23818005    -0.62100
O3867       O  0.33865231  0.68868887  0.41881897    -0.56900
O3868       O  0.30541597  0.68134804  0.29252743    -0.93600
O3869       O  0.32490499  0.67777743  0.33514127    -0.92000
O3870       O  0.30236432  0.68880882  0.46445368    -0.92400
O3871       O  0.27911001  0.69693416  0.41707677    -0.91200
C3872       C  0.31495797  0.66813794  0.31192205     1.17900
H3873       H  0.32407799  0.73203108  0.45880783     0.33800
H3874       H  0.27821394  0.74039632  0.35266762     0.44700
H3875       H  0.32745591  0.72710209  0.25781624     0.38200
H3876       H  0.31565720  0.81917239  0.34429571     0.34700
H3877       H  0.27413308  0.73121893  0.49332912     0.26500
H3878       H  0.27876480  0.83474825  0.29975455     0.32400
H3879       H  0.32123441  0.82205413  0.20981244     0.38300
H3880       H  0.30936924  0.68155650  0.44297682     0.32800
H3881       H  0.34735109  0.68243095  0.40594072     0.31700
H3882       H  0.35281359  0.69361815  0.31735345     0.33400
H3883       H  0.34438760  0.75468356  0.22076707     0.32300
H3884       H  0.28015996  0.69123421  0.38319278     0.36300
H3885       H  0.27984197  0.68902287  0.25676672     0.29100
H3886       H  0.33154066  0.82101525  0.49337567     0.33300
H3887       H  0.34471163  0.81994251  0.25311292     0.36100
H3888       H  0.34108968  0.69844558  0.44825342     0.28700
H3889       H  0.28473348  0.70166681  0.20834692     0.41600
H3890       H  0.26609843  0.78198906  0.39689110     0.31700
H3891       H  0.27639940  0.75981045  0.47696342     0.39300
H3892       H  0.35170754  0.76154185  0.26913473     0.31100
H3893       H  0.29432836  0.83757575  0.29230503     0.31200
H3894       H  0.33832055  0.82875935  0.44416835     0.31500
Zr3895     Zr  0.32199152  0.78411541  0.92298312     2.17500
O3896       O  0.33703101  0.81524035  0.96140314    -0.50900
O3897       O  0.31753981  0.77262109  0.00730496    -0.74100
O3898       O  0.31240315  0.82750424  0.93172196    -0.80900
O3899       O  0.35115194  0.73736060  0.89717532    -0.82600
O3900       O  0.29290609  0.83102760  0.88918982    -0.78200
O3901       O  0.34622527  0.77657786  0.92977482    -0.89900
O3902       O  0.30225222  0.74000475  0.01042523    -0.75800
O3903       O  0.29840529  0.77547150  0.92259183    -0.85300
O3904       O  0.31989398  0.73836071  0.92964059    -0.85000
O3905       O  0.31391914  0.80050552  0.84687508    -0.71800
O3906       O  0.33333775  0.76631410  0.85417243    -0.83900
Zr3907     Zr  0.29937880  0.72705160  0.78399863     2.26400
Zr3908     Zr  0.29030480  0.79050864  0.84610686     2.06300
Zr3909     Zr  0.33091708  0.72061410  0.86042810     2.10000
Zr3910     Zr  0.29629532  0.72979827  0.92817996     1.78800
O3911       O  0.34885986  0.70809062  0.80528594    -0.92700
O3912       O  0.27510607  0.74293729  0.96498576    -0.40500
O3913       O  0.30741432  0.71173606  0.86000309    -0.77200
O3914       O  0.28752747  0.74467155  0.85266463    -0.95800
O3915       O  0.30150329  0.77265339  0.77730082    -0.89200
O3916       O  0.32292703  0.73568699  0.78388633    -0.92000
C3917       C  0.31026311  0.75615824  0.03019391     1.01800
C3918       C  0.35439581  0.75824982  0.91889762     1.14700
C3919       C  0.30206984  0.84013886  0.91693371     1.05500
O3920       O  0.26979680  0.79621729  0.89297684    -0.94100
O3921       O  0.27162409  0.77850855  0.79424322    -0.89900
O3922       O  0.27642981  0.73879973  0.76365058    -0.83000
C3923       C  0.26874010  0.75837039  0.76942199     1.12100
O3924       O  0.34264079  0.81383829  0.78901867    -0.96100
Zr3925     Zr  0.32495695  0.78160292  0.77878126     1.88900
O3926       O  0.30543814  0.73627824  0.70008226    -0.72800
O3927       O  0.28573519  0.82565723  0.79017839    -0.52000
O3928       O  0.31796718  0.82268089  0.74409952    -0.96700
O3929       O  0.34589375  0.76909518  0.73911006    -0.53900
O3930       O  0.31869245  0.77197418  0.69687532    -0.73300
C3931       C  0.31181505  0.75402699  0.67716269     0.99100
O3932       O  0.28750234  0.69267412  0.74130908    -0.62100
O3933       O  0.33832264  0.68857843  0.91925137    -0.56900
O3934       O  0.30537444  0.68128048  0.79192935    -0.93600
O3935       O  0.32470412  0.67757588  0.83539775    -0.92000
O3936       O  0.30187382  0.68826095  0.96414347    -0.92400
O3937       O  0.27899955  0.69688059  0.91806626    -0.91200
C3938       C  0.31480852  0.66802550  0.81184668     1.17900
H3939       H  0.32411931  0.73182627  0.95850471     0.33800
H3940       H  0.27810968  0.74006608  0.85242409     0.44700
H3941       H  0.32734698  0.72695347  0.75753145     0.38200
H3942       H  0.31537207  0.81887043  0.84424122     0.34700
H3943       H  0.27430485  0.73210283  0.99426397     0.26500
H3944       H  0.27850244  0.83582832  0.80573813     0.32400
H3945       H  0.32209904  0.82312676  0.71162550     0.38300
H3946       H  0.29697867  0.68799277  0.99524859     0.32800
H3947       H  0.34702035  0.68211668  0.90671610     0.31700
H3948       H  0.35314330  0.69291763  0.82063190     0.33400
H3949       H  0.34351540  0.75460732  0.71743768     0.32300
H3950       H  0.27886226  0.69328962  0.88298887     0.36300
H3951       H  0.27934721  0.68902215  0.76068957     0.29100
H3952       H  0.33208459  0.82215866  0.98957293     0.33300
H3953       H  0.34517878  0.81929914  0.75602571     0.36100
H3954       H  0.34075103  0.69841317  0.94859696     0.28700
H3955       H  0.28411158  0.70051164  0.71107551     0.41600
H3956       H  0.26520812  0.77926577  0.89158082     0.31700
H3957       H  0.27678434  0.76055199  0.97746270     0.39300
H3958       H  0.35135274  0.76106325  0.76493180     0.31100
H3959       H  0.29379179  0.83686991  0.79186935     0.31200
H3960       H  0.33783968  0.82990791  0.93865243     0.31500
Zr3961     Zr  0.42645557  0.97336366  0.42132922     2.17500
O3962       O  0.41135976  0.94361525  0.46300905    -0.50900
O3963       O  0.43102650  0.98467951  0.50566054    -0.74100
O3964       O  0.43584100  0.92966186  0.42947607    -0.80900
O3965       O  0.39720140  0.01977483  0.39446787    -0.82600
O3966       O  0.45550698  0.92661525  0.38779651    -0.78200
O3967       O  0.40213324  0.98034072  0.42613777    -0.89900
O3968       O  0.44601582  0.01773951  0.50937107    -0.75800
O3969       O  0.44998719  0.98236667  0.42164665    -0.85300
O3970       O  0.42835727  0.01916462  0.42792842    -0.85000
O3971       O  0.43466962  0.95710255  0.34526434    -0.71800
O3972       O  0.41530213  0.99129352  0.35230877    -0.83900
Zr3973     Zr  0.44929734  0.03079644  0.28314498     2.26400
Zr3974     Zr  0.45828489  0.96739889  0.34538081     2.06300
Zr3975     Zr  0.41749406  0.03698542  0.35830147     2.10000
Zr3976     Zr  0.45190684  0.02808936  0.42733857     1.78800
O3977       O  0.40011766  0.04921985  0.30055920    -0.92700
O3978       O  0.47280926  0.01577343  0.46715908    -0.40500
O3979       O  0.44099001  0.04610709  0.35876265    -0.77200
O3980       O  0.46104870  0.01332844  0.35215340    -0.95800
O3981       O  0.44717834  0.98520305  0.27639550    -0.89200
O3982       O  0.42574928  0.02207512  0.28198692    -0.92000
C3983       C  0.43820365  0.00117234  0.52884922     1.01800
C3984       C  0.39394772  0.99870661  0.41562942     1.14700
C3985       C  0.44627548  0.91719574  0.41492859     1.05500
O3986       O  0.47863066  0.96263793  0.39348167    -0.94100
O3987       O  0.47695269  0.97944321  0.29319880    -0.89900
O3988       O  0.47228641  0.01932030  0.26302540    -0.83000
C3989       C  0.47990053  0.99960824  0.26847535     1.12100
O3990       O  0.40541878  0.94528609  0.28633182    -0.96100
Zr3991     Zr  0.42373559  0.97620784  0.27700934     1.88900
O3992       O  0.44382374  0.02144007  0.19901407    -0.72800
O3993       O  0.46326344  0.93211579  0.29010104    -0.52000
O3994       O  0.43014695  0.93496656  0.24138239    -0.96700
O3995       O  0.40262317  0.98920739  0.23920855    -0.53900
O3996       O  0.43036475  0.98606330  0.19547207    -0.73300
C3997       C  0.43744732  0.00378189  0.17597078     0.99100
O3998       O  0.46047323  0.06572279  0.23958492    -0.62100
O3999       O  0.40952090  0.06864229  0.41685591    -0.56900
O4000       O  0.44337416  0.07651762  0.29097844    -0.93600
O4001       O  0.42381807  0.08002866  0.33319638    -0.92000
O4002       O  0.44511318  0.06941067  0.46150915    -0.92400
O4003       O  0.46940364  0.06078892  0.42022020    -0.91200
C4004       C  0.43380931  0.08967567  0.31025461     1.17900
H4005       H  0.42403699  0.02561640  0.45670328     0.33800
H4006       H  0.47044299  0.01804216  0.35215212     0.44700
H4007       H  0.42142076  0.03073521  0.25537340     0.38200
H4008       H  0.43323938  0.93874791  0.34231971     0.34700
H4009       H  0.47343584  0.02726433  0.49561825     0.26500
H4010       H  0.47011855  0.92152894  0.30684768     0.32400
H4011       H  0.42736294  0.93604819  0.20715683     0.38300
H4012       H  0.45047964  0.07116478  0.49142878     0.32800
H4013       H  0.40114978  0.07566529  0.40261914     0.31700
H4014       H  0.39171271  0.05038512  0.31959444     0.33400
H4015       H  0.40513020  0.00190597  0.21409356     0.32300
H4016       H  0.46803527  0.06833070  0.38777988     0.36300
H4017       H  0.46910011  0.06872207  0.25656381     0.29100
H4018       H  0.41649408  0.93700403  0.49100591     0.33300
H4019       H  0.40374933  0.93822819  0.25368684     0.36100
H4020       H  0.40646134  0.05857889  0.44516469     0.28700
H4021       H  0.46305848  0.05837168  0.20793857     0.41600
H4022       H  0.48284263  0.97996116  0.39322697     0.31700
H4023       H  0.47101995  0.99846684  0.48088777     0.39300
H4024       H  0.39793208  0.99949287  0.26415870     0.31100
H4025       H  0.45504557  0.92129847  0.28999927     0.31200
H4026       H  0.41025673  0.92859288  0.44125989     0.31500
Zr4027     Zr  0.42675089  0.97399146  0.92293714     2.17500
O4028       O  0.41183749  0.94422093  0.96545356    -0.50900
O4029       O  0.43185294  0.98552333  0.00671250    -0.74100
O4030       O  0.43594196  0.93024018  0.93103252    -0.80900
O4031       O  0.39740896  0.02046282  0.89493283    -0.82600
O4032       O  0.45524672  0.92639064  0.88750593    -0.78200
O4033       O  0.40254552  0.98189134  0.92974068    -0.89900
O4034       O  0.44724398  0.01793460  0.00904253    -0.75800
O4035       O  0.45032107  0.98249291  0.92167757    -0.85300
O4036       O  0.42888979  0.01974218  0.92859982    -0.85000
O4037       O  0.43448835  0.95731102  0.84653253    -0.71800
O4038       O  0.41539084  0.99148697  0.85403879    -0.83900
Zr4039     Zr  0.44922623  0.03040053  0.78213056     2.26400
Zr4040     Zr  0.45816763  0.96708244  0.84503917     2.06300
Zr4041     Zr  0.41780645  0.03719434  0.85911422     2.10000
Zr4042     Zr  0.45248558  0.02818239  0.92648692     1.78800
O4043       O  0.40019333  0.04883978  0.80198669    -0.92700
O4044       O  0.47391125  0.01493816  0.96155398    -0.40500
O4045       O  0.44133056  0.04602753  0.85813794    -0.77200
O4046       O  0.46115282  0.01301566  0.85096655    -0.95800
O4047       O  0.44692139  0.98477621  0.77606690    -0.89200
O4048       O  0.42568154  0.02196653  0.78255243    -0.92000
C4049       C  0.43935237  0.00175251  0.02919876     1.01800
C4050       C  0.39426650  0.99982730  0.91772346     1.14700
C4051       C  0.44613367  0.91739761  0.91560675     1.05500
O4052       O  0.47835874  0.96060914  0.89334099    -0.94100
O4053       O  0.47687218  0.97904150  0.79290130    -0.89900
O4054       O  0.47220167  0.01880460  0.76225798    -0.83000
C4055       C  0.47983823  0.99916946  0.76809914     1.12100
O4056       O  0.40515574  0.94487344  0.78432593    -0.96100
Zr4057     Zr  0.42342990  0.97613957  0.77826430     1.88900
O4058       O  0.44309748  0.02072006  0.69840274    -0.72800
O4059       O  0.46303894  0.93161551  0.79001344    -0.52000
O4060       O  0.43005515  0.93481992  0.74355269    -0.96700
O4061       O  0.40204699  0.98971906  0.74309601    -0.53900
O4062       O  0.42936435  0.98570646  0.69600530    -0.73300
C4063       C  0.43642356  0.00323857  0.67585830     0.99100
O4064       O  0.46069228  0.06441900  0.73699786    -0.62100
O4065       O  0.40988229  0.06900692  0.91738405    -0.56900
O4066       O  0.44334278  0.07622737  0.78964535    -0.93600
O4067       O  0.42425335  0.08020056  0.83440456    -0.92000
O4068       O  0.44617680  0.06862471  0.96514408    -0.92400
O4069       O  0.46921680  0.06222652  0.91791899    -0.91200
C4070       C  0.43406092  0.08961294  0.81015725     1.17900
H4071       H  0.42475083  0.02641875  0.95752638     0.33800
H4072       H  0.47056951  0.01759457  0.85070922     0.44700
H4073       H  0.42126582  0.03064287  0.75608495     0.38200
H4074       H  0.43293177  0.93897024  0.84396235     0.34700
H4075       H  0.47487858  0.02559711  0.99099757     0.26500
H4076       H  0.47036006  0.92177195  0.80579602     0.32400
H4077       H  0.42677265  0.93525832  0.70984704     0.38300
H4078       H  0.44033997  0.07744703  0.94135546     0.32800
H4079       H  0.40135607  0.07563573  0.90369430     0.31700
H4080       H  0.39534292  0.06333302  0.81741869     0.33400
H4081       H  0.40432205  0.00327209  0.71928769     0.32300
H4082       H  0.46833501  0.06798170  0.88401119     0.36300
H4083       H  0.46925127  0.06769512  0.75423776     0.29100
H4084       H  0.41717672  0.93700348  0.99241912     0.33300
H4085       H  0.40334698  0.93910630  0.75088599     0.36100
H4086       H  0.40710057  0.05903006  0.94616094     0.28700
H4087       H  0.46339280  0.05648413  0.70596296     0.41600
H4088       H  0.48355499  0.97680210  0.88973130     0.31700
H4089       H  0.47233526  0.99724380  0.97381687     0.39300
H4090       H  0.39736040  0.99900666  0.76938594     0.31100
H4091       H  0.45508274  0.92014225  0.79184538     0.31200
H4092       H  0.41032686  0.92956665  0.94314023     0.31500
Zr4093     Zr  0.32206057  0.97280154  0.94581444     2.17500
O4094       O  0.33719168  0.94263153  0.90541427    -0.50900
O4095       O  0.31729781  0.98409688  0.86150801    -0.74100
O4096       O  0.31267735  0.92908103  0.93817036    -0.80900
O4097       O  0.35129069  0.01986764  0.97159269    -0.82600
O4098       O  0.29328321  0.92574922  0.98140359    -0.78200
O4099       O  0.34634087  0.98050531  0.93950176    -0.89900
O4100       O  0.30220939  0.01702614  0.85831375    -0.75800
O4101       O  0.29848346  0.98159823  0.94617912    -0.85300
O4102       O  0.32001094  0.01851670  0.93894391    -0.85000
O4103       O  0.31399503  0.95665503  0.02223419    -0.71800
O4104       O  0.33336630  0.99096347  0.01434636    -0.83900
Zr4105     Zr  0.29956210  0.03024431  0.08468758     2.26400
Zr4106     Zr  0.29037723  0.96669809  0.02278569     2.06300
Zr4107     Zr  0.33100365  0.03667977  0.00788372     2.10000
Zr4108     Zr  0.29646993  0.02732125  0.94058455     1.78800
O4109       O  0.34906505  0.04939429  0.06236309    -0.92700
O4110       O  0.27532793  0.01586896  0.90148145    -0.40500
O4111       O  0.30752843  0.04560752  0.00865422    -0.77200
O4112       O  0.28768966  0.01256474  0.01611877    -0.95800
O4113       O  0.30165264  0.98459839  0.09141890    -0.89200
O4114       O  0.32311063  0.02167293  0.08464162    -0.92000
C4115       C  0.31006761  0.00062024  0.83856700     1.01800
C4116       C  0.35452111  0.99890716  0.95006894     1.14700
C4117       C  0.30238304  0.91648653  0.95359467     1.05500
O4118       O  0.27015629  0.96111845  0.97419961    -0.94100
O4119       O  0.27156996  0.97929620  0.07376130    -0.89900
O4120       O  0.27662711  0.01863402  0.10553698    -0.83000
C4121       C  0.26879537  0.99932251  0.09910740     1.12100
O4122       O  0.34197052  0.94216638  0.07768450    -0.96100
Zr4123     Zr  0.32513803  0.97579197  0.08993900     1.88900
O4124       O  0.30559753  0.02138859  0.16869841    -0.72800
O4125       O  0.28523492  0.93161934  0.07841820    -0.52000
O4126       O  0.31928124  0.93533635  0.12950782    -0.96700
O4127       O  0.34673022  0.98846067  0.12460847    -0.53900
O4128       O  0.31922539  0.98623549  0.17202770    -0.73300
C4129       C  0.31216764  0.00395373  0.19171086     0.99100
O4130       O  0.28781134  0.06481215  0.12709898    -0.62100
O4131       O  0.33774790  0.06780012  0.94637858    -0.56900
O4132       O  0.30546351  0.07606553  0.07678406    -0.93600
O4133       O  0.32486924  0.07978940  0.03380136    -0.92000
O4134       O  0.30318331  0.06860790  0.90629845    -0.92400
O4135       O  0.27897300  0.05975566  0.95115958    -0.91200
C4136       C  0.31494154  0.08936797  0.05723215     1.17900
H4137       H  0.32422085  0.02492926  0.90995119     0.33800
H4138       H  0.27829642  0.01731511  0.01634033     0.44700
H4139       H  0.32756839  0.03041735  0.11090327     0.38200
H4140       H  0.31546794  0.93833369  0.02531424     0.34700
H4141       H  0.27461284  0.02779517  0.87368357     0.26500
H4142       H  0.27812412  0.92141253  0.06219367     0.32400
H4143       H  0.31011729  0.93815648  0.14249415     0.38300
H4144       H  0.29791233  0.07009991  0.87612016     0.32800
H4145       H  0.34554863  0.07697039  0.96050954     0.31700
H4146       H  0.35093011  0.06767468  0.05439539     0.33400
H4147       H  0.34463670  0.00225603  0.14814168     0.32300
H4148       H  0.28072880  0.06717629  0.98347114     0.36300
H4149       H  0.27944826  0.06795563  0.10858943     0.29100
H4150       H  0.33216917  0.93609187  0.87709285     0.33300
H4151       H  0.34584598  0.93865197  0.10992401     0.36100
H4152       H  0.34161161  0.05754459  0.91961814     0.28700
H4153       H  0.28477569  0.05723229  0.15804588     0.41600
H4154       H  0.26614635  0.97857781  0.97215801     0.31700
H4155       H  0.27698447  0.99875102  0.88676301     0.39300
H4156       H  0.35150541  0.99739404  0.09808989     0.31100
H4157       H  0.29328020  0.92034660  0.07788381     0.31200
H4158       H  0.33809496  0.92762437  0.92731023     0.31500
Zr4159     Zr  0.32178414  0.97340754  0.44564226     2.17500
O4160       O  0.33671981  0.94326189  0.40426185    -0.50900
O4161       O  0.31698122  0.98481752  0.36150018    -0.74100
O4162       O  0.31239649  0.92974158  0.43802143    -0.80900
O4163       O  0.35111493  0.02021788  0.47064325    -0.82600
O4164       O  0.29310526  0.92614734  0.48176025    -0.78200
O4165       O  0.34602127  0.98081939  0.43905218    -0.89900
O4166       O  0.30193007  0.01778732  0.35860221    -0.75800
O4167       O  0.29823949  0.98213948  0.44649329    -0.85300
O4168       O  0.31978208  0.01915578  0.43924689    -0.85000
O4169       O  0.31385823  0.95708023  0.52204301    -0.71800
O4170       O  0.33324780  0.99133909  0.51401601    -0.83900
Zr4171     Zr  0.29947948  0.03073635  0.58522605     2.26400
Zr4172     Zr  0.29026131  0.96717296  0.52323901     2.06300
Zr4173     Zr  0.33093129  0.03702521  0.50813977     2.10000
Zr4174     Zr  0.29621330  0.02781170  0.44098619     1.78800
O4175       O  0.34899357  0.04826749  0.56378929    -0.92700
O4176       O  0.27509615  0.01341254  0.40519742    -0.40500
O4177       O  0.30742982  0.04596871  0.50900654    -0.77200
O4178       O  0.28746660  0.01311390  0.51671394    -0.95800
O4179       O  0.30163385  0.98509553  0.59158214    -0.89200
O4180       O  0.32302886  0.02200803  0.58481703    -0.92000
C4181       C  0.30976762  0.00140264  0.33869364     1.01800
C4182       C  0.35426119  0.99915392  0.44921415     1.14700
C4183       C  0.30217444  0.91701572  0.45361269     1.05500
O4184       O  0.26981208  0.96094223  0.47624563    -0.94100
O4185       O  0.27156236  0.97948790  0.57467987    -0.89900
O4186       O  0.27646723  0.01916512  0.60525627    -0.83000
C4187       C  0.26874589  0.99961511  0.59962049     1.12100
O4188       O  0.34236377  0.94336640  0.57663258    -0.96100
Zr4189     Zr  0.32507771  0.97607263  0.58960184     1.88900
O4190       O  0.30585755  0.02140979  0.66893952    -0.72800
O4191       O  0.28545652  0.93282702  0.58076291    -0.52000
O4192       O  0.31883361  0.93520456  0.62690580    -0.96700
O4193       O  0.34632264  0.98856592  0.62705037    -0.53900
O4194       O  0.31891500  0.98545594  0.67163794    -0.73300
C4195       C  0.31216350  0.00347318  0.69162651     0.99100
O4196       O  0.28789182  0.06419226  0.63150016    -0.62100
O4197       O  0.33810485  0.06923638  0.44940787    -0.56900
O4198       O  0.30528693  0.07663157  0.57569601    -0.93600
O4199       O  0.32479654  0.08018354  0.53322698    -0.92000
O4200       O  0.30163429  0.06850984  0.40155102    -0.92400
O4201       O  0.27948052  0.06179401  0.45018172    -0.91200
C4202       C  0.31480495  0.08985871  0.55609733     1.17900
H4203       H  0.32396784  0.02562390  0.41023356     0.33800
H4204       H  0.27806543  0.01780019  0.51684964     0.44700
H4205       H  0.32751205  0.03069448  0.61112151     0.38200
H4206       H  0.31534545  0.93874304  0.52498878     0.34700
H4207       H  0.27331632  0.02588840  0.37890937     0.26500
H4208       H  0.27783117  0.92317707  0.56647281     0.32400
H4209       H  0.32400780  0.93453641  0.65740368     0.38300
H4210       H  0.31075055  0.07293290  0.41336721     0.32800
H4211       H  0.34679862  0.07574251  0.46191391     0.31700
H4212       H  0.35008590  0.06717897  0.56055572     0.33400
H4213       H  0.34404929  0.00262073  0.64981868     0.32300
H4214       H  0.28076579  0.06816870  0.48353804     0.36300
H4215       H  0.27986087  0.06892173  0.61228050     0.29100
H4216       H  0.33154344  0.93659629  0.37640227     0.33300
H4217       H  0.34547766  0.93820079  0.60915044     0.36100
H4218       H  0.34051645  0.05944703  0.41999355     0.28700
H4219       H  0.28426977  0.05557161  0.66064182     0.41600
H4220       H  0.27297488  0.95735934  0.44305665     0.31700
H4221       H  0.27734859  0.99715069  0.38826175     0.39300
H4222       H  0.35144122  0.99716113  0.60096562     0.31100
H4223       H  0.29321370  0.92089862  0.57846662     0.31200
H4224       H  0.33780090  0.92832206  0.42621939     0.31500
C4225       C  0.31097932  0.00141964  0.78682981    -0.12800
C4226       C  0.31150811  0.00303218  0.74341913    -0.14400
C4227       C  0.31071146  0.00227795  0.28694387    -0.12800
C4228       C  0.31139459  0.00372186  0.24352337    -0.14400
C4229       C  0.36845430  0.99600249  0.93800466    -0.12800
C4230       C  0.38033247  0.99649157  0.92939599    -0.14400
C4231       C  0.43695298  0.00286150  0.62405043    -0.12800
C4232       C  0.43735643  0.00159538  0.58059198    -0.14400
C4233       C  0.43830153  0.00351034  0.12431364    -0.12800
C4234       C  0.43875527  0.00232400  0.08090620    -0.14400
C4235       C  0.36815408  0.99587639  0.43675314    -0.12800
C4236       C  0.38000785  0.99563371  0.42760744    -0.14400
C4237       C  0.30112385  0.86692110  0.93051182    -0.12800
C4238       C  0.30128847  0.88965345  0.94043043    -0.14400
C4239       C  0.31057957  0.75564943  0.58199973    -0.12800
C4240       C  0.31111151  0.75426799  0.62541454    -0.14400
C4241       C  0.31128106  0.75517632  0.08188503    -0.12800
C4242       C  0.31182863  0.75364694  0.12529533    -0.14400
C4243       C  0.30129172  0.86746621  0.42999614    -0.12800
C4244       C  0.30121211  0.89017283  0.44025462    -0.14400
C4245       C  0.44751779  0.86749377  0.43784088    -0.12800
C4246       C  0.44735644  0.89029863  0.42815222    -0.14400
C4247       C  0.38040752  0.76218869  0.43760852    -0.12800
C4248       C  0.36847517  0.76218105  0.42974334    -0.14400
C4249       C  0.43745735  0.75600357  0.78590371    -0.12800
C4250       C  0.43680800  0.75425987  0.74249165    -0.14400
C4251       C  0.43761907  0.75465202  0.24258948    -0.12800
C4252       C  0.43829393  0.75575253  0.28596399    -0.14400
C4253       C  0.44688102  0.86782652  0.93889716    -0.12800
C4254       C  0.44699135  0.89055465  0.92891835    -0.14400
C4255       C  0.38023228  0.76091681  0.93890376    -0.12800
C4256       C  0.36833777  0.76121840  0.93065465    -0.14400
C4257       C  0.31409560  0.14086754  0.55741786    -0.12800
C4258       C  0.31404954  0.11755820  0.55776342    -0.14400
C4259       C  0.31399236  0.14038602  0.05926981    -0.12800
C4260       C  0.31414271  0.11706702  0.05955681    -0.14400
C4261       C  0.31149721  0.25411373  0.87566541    -0.12800
C4262       C  0.31091883  0.25549648  0.83226227    -0.14400
C4263       C  0.31063006  0.25600891  0.33207593    -0.12800
C4264       C  0.31135840  0.25487768  0.37548780    -0.14400
C4265       C  0.43502382  0.14046044  0.80906893    -0.12800
C4266       C  0.43495866  0.11720596  0.80818183    -0.14400
C4267       C  0.38031709  0.26168795  0.68979494    -0.12800
C4268       C  0.36845340  0.26188921  0.68094716    -0.14400
C4269       C  0.43454755  0.11729094  0.30832032    -0.12800
C4270       C  0.43448903  0.14055239  0.30902532    -0.14400
C4271       C  0.43783914  0.25566790  0.53713393    -0.12800
C4272       C  0.43706106  0.25428716  0.49373593    -0.14400
C4273       C  0.43782584  0.25537545  0.03715561    -0.12800
C4274       C  0.43732183  0.25380530  0.99375925    -0.14400
C4275       C  0.36841619  0.26202188  0.17873606    -0.12800
C4276       C  0.38030854  0.26180513  0.18707029    -0.14400
C4277       C  0.31407793  0.61716046  0.81023897    -0.12800
C4278       C  0.31403926  0.64041801  0.80979739    -0.14400
C4279       C  0.30194205  0.36770897  0.67937263    -0.12800
C4280       C  0.30213847  0.39041553  0.68928613    -0.14400
C4281       C  0.31431550  0.61718220  0.30996717    -0.12800
C4282       C  0.31425663  0.64047445  0.30963692    -0.14400
C4283       C  0.31133386  0.50221264  0.53693253    -0.12800
C4284       C  0.31185929  0.50330197  0.49344250    -0.14400
C4285       C  0.31172747  0.50366686  0.99358639    -0.12800
C4286       C  0.31118283  0.50226998  0.03697080    -0.14400
C4287       C  0.30161675  0.36784179  0.17813616    -0.12800
C4288       C  0.30157626  0.39054237  0.18830080    -0.14400
C4289       C  0.43456114  0.64048609  0.55730025    -0.12800
C4290       C  0.43460687  0.61719562  0.55678201    -0.14400
C4291       C  0.44732721  0.38985043  0.67807326    -0.12800
C4292       C  0.44738760  0.36716951  0.68856210    -0.14400
C4293       C  0.38055195  0.49621931  0.67942074    -0.12800
C4294       C  0.36872808  0.49662419  0.68854610    -0.14400
C4295       C  0.43516239  0.61723662  0.05985967    -0.12800
C4296       C  0.43516232  0.64055635  0.06015147    -0.14400
C4297       C  0.43799392  0.50203483  0.83131462    -0.12800
C4298       C  0.43748979  0.50361621  0.87473470    -0.14400
C4299       C  0.43837954  0.50156601  0.33117045    -0.12800
C4300       C  0.43778516  0.50279185  0.37460727    -0.14400
C4301       C  0.44750318  0.39018384  0.17960197    -0.12800
C4302       C  0.44736824  0.36751099  0.19001580    -0.14400
C4303       C  0.38051939  0.49558495  0.17943619    -0.12800
C4304       C  0.36864745  0.49589447  0.18824980    -0.14400
C4305       C  0.24489122  0.50243208  0.88788354    -0.12800
C4306       C  0.25592257  0.50024833  0.87038849    -0.14400
C4307       C  0.25607869  0.50014058  0.37238702    -0.12800
C4308       C  0.24502776  0.50240347  0.38979830    -0.14400
C4309       C  0.18740426  0.50247243  0.75192530    -0.12800
C4310       C  0.18760525  0.50452412  0.70861799    -0.14400
C4311       C  0.18726168  0.50213345  0.25193580    -0.12800
C4312       C  0.18744036  0.50391017  0.20846416    -0.14400
C4313       C  0.13043888  0.50773213  0.55771503    -0.12800
C4314       C  0.11837964  0.50806593  0.56087244    -0.14400
C4315       C  0.06157110  0.50341443  0.86613521    -0.12800
C4316       C  0.06121676  0.50519778  0.90951084    -0.14400
C4317       C  0.06109427  0.50456230  0.40947628    -0.12800
C4318       C  0.06133843  0.50258465  0.36606619    -0.14400
C4319       C  0.11851052  0.50793670  0.06133576    -0.12800
C4320       C  0.13057706  0.50780028  0.05783887    -0.14400
C4321       C  0.24473558  0.75490718  0.73001379    -0.12800
C4322       C  0.25575816  0.75708176  0.74743235    -0.14400
C4323       C  0.19551350  0.63966885  0.56616485    -0.12800
C4324       C  0.19543440  0.61721064  0.55460678    -0.14400
C4325       C  0.25556673  0.75656852  0.24908142    -0.12800
C4326       C  0.24457326  0.75458254  0.23124177    -0.14400
C4327       C  0.18753871  0.75508653  0.86570647    -0.12800
C4328       C  0.18775714  0.75308841  0.90904731    -0.14400
C4329       C  0.18767302  0.75339136  0.40910239    -0.12800
C4330       C  0.18739303  0.75554147  0.36572238    -0.14400
C4331       C  0.19560761  0.61757650  0.05298080    -0.12800
C4332       C  0.19564333  0.64003027  0.06465385    -0.14400
C4333       C  0.05335460  0.64017114  0.05475711    -0.12800
C4334       C  0.05344489  0.61773771  0.06642238    -0.14400
C4335       C  0.11851217  0.74933692  0.05697161    -0.12800
C4336       C  0.13057470  0.74950067  0.06013838    -0.14400
C4337       C  0.06145434  0.75335815  0.70778565    -0.12800
C4338       C  0.06154303  0.75510848  0.75124401    -0.14400
C4339       C  0.06132872  0.75478510  0.25114420    -0.12800
C4340       C  0.06116454  0.75288610  0.20780203    -0.14400
C4341       C  0.05372362  0.64032297  0.55297458    -0.12800
C4342       C  0.05365167  0.61791915  0.56488537    -0.14400
C4343       C  0.11873997  0.75015675  0.55499958    -0.12800
C4344       C  0.13079480  0.75004767  0.55830819    -0.14400
C4345       C  0.24481437  0.25549198  0.97900829    -0.12800
C4346       C  0.25578281  0.25781780  0.99684163    -0.14400
C4347       C  0.18288897  0.39062026  0.92974405    -0.12800
C4348       C  0.18295771  0.36751013  0.93481233    -0.14400
C4349       C  0.24477406  0.25503492  0.48034097    -0.12800
C4350       C  0.25576761  0.25743141  0.49814105    -0.14400
C4351       C  0.18305460  0.39035984  0.43228424    -0.12800
C4352       C  0.18300171  0.36721358  0.43660624    -0.14400
C4353       C  0.18753352  0.25290540  0.65882182    -0.12800
C4354       C  0.18737832  0.25512121  0.61543051    -0.14400
C4355       C  0.18745357  0.25599833  0.11537877    -0.12800
C4356       C  0.18768780  0.25380770  0.15864870    -0.14400
C4357       C  0.06569836  0.36729538  0.68031608    -0.12800
C4358       C  0.06581923  0.39045815  0.68529809    -0.14400
C4359       C  0.13055057  0.25032234  0.80915470    -0.12800
C4360       C  0.11849057  0.25033010  0.80566621    -0.14400
C4361       C  0.06606907  0.36728203  0.18171372    -0.12800
C4362       C  0.06598068  0.39041560  0.18689146    -0.14400
C4363       C  0.06166380  0.25378133  0.95709928    -0.12800
C4364       C  0.06183733  0.25570245  0.00046009    -0.14400
C4365       C  0.06124250  0.25342134  0.45750337    -0.12800
C4366       C  0.06127910  0.25547103  0.50091351    -0.14400
C4367       C  0.11855160  0.24968575  0.30635961    -0.12800
C4368       C  0.13061297  0.24990279  0.30932589    -0.14400
C4369       C  0.06613136  0.89036416  0.93793870    -0.12800
C4370       C  0.06601431  0.86720810  0.93282027    -0.14400
C4371       C  0.05353426  0.13998341  0.80359810    -0.12800
C4372       C  0.05348907  0.11756668  0.81565056    -0.14400
C4373       C  0.06577080  0.89033750  0.43631009    -0.12800
C4374       C  0.06577267  0.86725184  0.43073850    -0.14400
C4375       C  0.06115971  0.00506014  0.65996134    -0.12800
C4376       C  0.06126025  0.00304729  0.61653592    -0.14400
C4377       C  0.06143804  0.00240582  0.11644700    -0.12800
C4378       C  0.06110711  0.00432870  0.15975932    -0.14400
C4379       C  0.05329432  0.14000422  0.30264200    -0.12800
C4380       C  0.05325716  0.11744359  0.31385291    -0.14400
C4381       C  0.24485593  0.00273053  0.64000193    -0.12800
C4382       C  0.25583388  0.00082828  0.62214062    -0.14400
C4383       C  0.18275429  0.89057245  0.68165315    -0.12800
C4384       C  0.18274858  0.86736569  0.68587943    -0.14400
C4385       C  0.19591360  0.11776080  0.80424857    -0.12800
C4386       C  0.19588739  0.14024010  0.81552268    -0.14400
C4387       C  0.11853005  0.00799396  0.81151064    -0.12800
C4388       C  0.13059853  0.00819607  0.80847518    -0.14400
C4389       C  0.24478479  0.00307060  0.13862164    -0.12800
C4390       C  0.25579195  0.00079703  0.12104290    -0.14400
C4391       C  0.18275620  0.89064523  0.18038449    -0.12800
C4392       C  0.18275676  0.86748035  0.18510249    -0.14400
C4393       C  0.18731704  0.00482919  0.95868389    -0.12800
C4394       C  0.18712409  0.00300343  0.00208303    -0.14400
C4395       C  0.18780245  0.00485111  0.45891466    -0.12800
C4396       C  0.18775254  0.00312599  0.50229993    -0.14400
C4397       C  0.19530564  0.14011113  0.31493494    -0.12800
C4398       C  0.19538172  0.11756299  0.30402121    -0.14400
C4399       C  0.11834819  0.00706782  0.31068792    -0.12800
C4400       C  0.13042993  0.00727918  0.30781018    -0.14400
C4401       C  0.81158800  0.00293995  0.53685438    -0.12800
C4402       C  0.81218346  0.00414920  0.49339973    -0.14400
C4403       C  0.81086086  0.00224334  0.03689467    -0.12800
C4404       C  0.81157712  0.00366210  0.99350680    -0.14400
C4405       C  0.00397309  0.00281410  0.47960082    -0.12800
C4406       C  0.99300323  0.00084109  0.49755992    -0.14400
C4407       C  0.88052426  0.99540162  0.68002689    -0.12800
C4408       C  0.86867107  0.99549183  0.68895433    -0.14400
C4409       C  0.99298201  0.00048405  0.99686367    -0.12800
C4410       C  0.00405623  0.00249713  0.97960239    -0.14400
C4411       C  0.93788304  0.00243740  0.83174556    -0.12800
C4412       C  0.93720143  0.00397682  0.87512012    -0.14400
C4413       C  0.93829679  0.00198876  0.33202058    -0.12800
C4414       C  0.93768150  0.00320849  0.37545672    -0.14400
C4415       C  0.86860788  0.99658918  0.18844705    -0.12800
C4416       C  0.88047345  0.99622004  0.17998156    -0.14400
C4417       C  0.80188098  0.86747466  0.67792167    -0.12800
C4418       C  0.80191826  0.89021291  0.68811638    -0.14400
C4419       C  0.81145921  0.75394169  0.87425992    -0.12800
C4420       C  0.81084918  0.75504210  0.83082988    -0.14400
C4421       C  0.81150741  0.75511073  0.33070059    -0.12800
C4422       C  0.81193996  0.75384478  0.37418157    -0.14400
C4423       C  0.80232019  0.89045639  0.18751059    -0.12800
C4424       C  0.80223939  0.86775076  0.17730267    -0.14400
C4425       C  0.00400925  0.75448338  0.88890932    -0.12800
C4426       C  0.99296999  0.75679326  0.87149005    -0.14400
C4427       C  0.94760366  0.89038757  0.68005148    -0.12800
C4428       C  0.94760850  0.86763166  0.69001267    -0.14400
C4429       C  0.88042412  0.76221717  0.68759611    -0.12800
C4430       C  0.86855105  0.76211281  0.67876629    -0.14400
C4431       C  0.00400938  0.75514207  0.38978655    -0.12800
C4432       C  0.99304156  0.75748169  0.37181833    -0.14400
C4433       C  0.93876098  0.75625735  0.53638431    -0.12800
C4434       C  0.93809110  0.75519618  0.49292530    -0.14400
C4435       C  0.93750731  0.75574075  0.99318493    -0.12800
C4436       C  0.93827661  0.75684271  0.03656237    -0.14400
C4437       C  0.94732688  0.86801676  0.18950103    -0.12800
C4438       C  0.94732640  0.89068795  0.17918327    -0.14400
C4439       C  0.88074069  0.76215157  0.18642930    -0.12800
C4440       C  0.86889456  0.76218275  0.17746807    -0.14400
C4441       C  0.81389916  0.14031770  0.80798657    -0.12800
C4442       C  0.81407048  0.11704919  0.80877703    -0.14400
C4443       C  0.81375666  0.11725841  0.31032426    -0.12800
C4444       C  0.81378631  0.14053624  0.30978919    -0.14400
C4445       C  0.81071512  0.25545676  0.58112394    -0.12800
C4446       C  0.81122232  0.25414592  0.62452884    -0.14400
C4447       C  0.81080435  0.25487851  0.08113312    -0.12800
C4448       C  0.81129596  0.25351724  0.12459278    -0.14400
C4449       C  0.99293738  0.25652074  0.62045944    -0.12800
C4450       C  0.00394363  0.25419449  0.63798414    -0.14400
C4451       C  0.93439686  0.11726198  0.55817043    -0.12800
C4452       C  0.93442500  0.14055949  0.55816060    -0.14400
C4453       C  0.88028807  0.26215872  0.43840673    -0.12800
C4454       C  0.86843397  0.26209657  0.42936956    -0.14400
C4455       C  0.99313875  0.25691188  0.11905045    -0.12800
C4456       C  0.00428748  0.25472164  0.13572729    -0.14400
C4457       C  0.93423285  0.14082498  0.06031402    -0.12800
C4458       C  0.93428633  0.11753827  0.05948822    -0.14400
C4459       C  0.93752245  0.25507837  0.78606440    -0.12800
C4460       C  0.93698789  0.25387041  0.74260620    -0.14400
C4461       C  0.93679134  0.25476203  0.24260492    -0.12800
C4462       C  0.93731344  0.25615704  0.28598073    -0.14400
C4463       C  0.88023048  0.26197569  0.93801846    -0.12800
C4464       C  0.86838425  0.26170319  0.92915183    -0.14400
C4465       C  0.81436281  0.61698436  0.55949962    -0.12800
C4466       C  0.81427128  0.64025476  0.55851713    -0.14400
C4467       C  0.80140454  0.39036572  0.43806771    -0.12800
C4468       C  0.80157134  0.36758648  0.42841501    -0.14400
C4469       C  0.81458843  0.61719970  0.06007487    -0.12800
C4470       C  0.81458038  0.64047925  0.05952657    -0.14400
C4471       C  0.81100621  0.50181989  0.78583315    -0.12800
C4472       C  0.81159301  0.50312934  0.74240821    -0.14400
C4473       C  0.81092663  0.50254713  0.28586765    -0.12800
C4474       C  0.81138513  0.50402623  0.24244163    -0.14400
C4475       C  0.80195867  0.36741455  0.92836303    -0.12800
C4476       C  0.80194859  0.39009275  0.93886630    -0.14400
C4477       C  0.00420401  0.50244387  0.73011782    -0.12800
C4478       C  0.99323004  0.50019980  0.74803415    -0.14400
C4479       C  0.93489573  0.61726329  0.80916262    -0.12800
C4480       C  0.93471274  0.64058798  0.80988292    -0.14400
C4481       C  0.94708707  0.39010294  0.92882797    -0.12800
C4482       C  0.94706571  0.36734962  0.93843875    -0.14400
C4483       C  0.88037999  0.49637975  0.92882566    -0.12800
C4484       C  0.86851061  0.49646067  0.93730868    -0.14400
C4485       C  0.99280608  0.49933415  0.24588873    -0.12800
C4486       C  0.00379395  0.50182619  0.22816494    -0.14400
C4487       C  0.93483974  0.61731714  0.30865118    -0.12800
C4488       C  0.93480865  0.64065415  0.30881432    -0.14400
C4489       C  0.93792998  0.50331720  0.62537326    -0.12800
C4490       C  0.93835115  0.50233253  0.58189091    -0.14400
C4491       C  0.93758351  0.50278242  0.12536882    -0.12800
C4492       C  0.93803160  0.50149133  0.08191764    -0.14400
C4493       C  0.94710221  0.39069020  0.43167576    -0.12800
C4494       C  0.94703573  0.36799155  0.44161283    -0.14400
C4495       C  0.88028774  0.49554920  0.42887065    -0.12800
C4496       C  0.86843671  0.49540249  0.43790583    -0.14400
C4497       C  0.50378270  0.25528780  0.89068307    -0.12800
C4498       C  0.49279572  0.25764800  0.87306140    -0.14400
C4499       C  0.50385774  0.25542011  0.38908716    -0.12800
C4500       C  0.49275714  0.25736424  0.37198956    -0.14400
C4501       C  0.56113510  0.25299120  0.70926840    -0.12800
C4502       C  0.56132245  0.25466370  0.75268940    -0.14400
C4503       C  0.56134042  0.25635649  0.25265695    -0.12800
C4504       C  0.56114723  0.25436096  0.20927797    -0.14400
C4505       C  0.75569779  0.25778324  0.74643996    -0.12800
C4506       C  0.74460193  0.25566290  0.72935933    -0.14400
C4507       C  0.61839740  0.24904583  0.55662058    -0.12800
C4508       C  0.63048063  0.24896732  0.55887658    -0.14400
C4509       C  0.75580885  0.25769371  0.24577246    -0.12800
C4510       C  0.74474918  0.25542311  0.22846587    -0.14400
C4511       C  0.68722199  0.25518920  0.86485799    -0.12800
C4512       C  0.68744583  0.25301790  0.90821359    -0.14400
C4513       C  0.68734542  0.25521850  0.36491493    -0.12800
C4514       C  0.68749093  0.25341195  0.40830688    -0.14400
C4515       C  0.61819661  0.24985155  0.05765429    -0.12800
C4516       C  0.63026103  0.24964059  0.06067302    -0.14400
C4517       C  0.50388342  0.00259968  0.72881982    -0.12800
C4518       C  0.49285024  0.00040233  0.74620968    -0.14400
C4519       C  0.55315447  0.14004183  0.55321633    -0.12800
C4520       C  0.55312652  0.11751934  0.56454515    -0.14400
C4521       C  0.50384960  0.00270497  0.22826729    -0.12800
C4522       C  0.49284721  0.00070647  0.24601271    -0.14400
C4523       C  0.56179871  0.00245655  0.86561014    -0.12800
C4524       C  0.56162653  0.00433781  0.90899752    -0.14400
C4525       C  0.56140070  0.00182567  0.36562781    -0.12800
C4526       C  0.56108051  0.00353576  0.40903131    -0.14400
C4527       C  0.55327846  0.11766086  0.06536902    -0.12800
C4528       C  0.55319376  0.14018834  0.05433481    -0.14400
C4529       C  0.74452570  0.00306332  0.88670236    -0.12800
C4530       C  0.75558908  0.00087749  0.86931153    -0.14400
C4531       C  0.69553262  0.11728649  0.05385128    -0.12800
C4532       C  0.69551642  0.13987131  0.06456282    -0.14400
C4533       C  0.63050266  0.00754490  0.05909403    -0.12800
C4534       C  0.61843682  0.00784840  0.06180827    -0.14400
C4535       C  0.74494883  0.00070706  0.38977989    -0.12800
C4536       C  0.75599647  0.99879924  0.37207820    -0.14400
C4537       C  0.68751195  0.00437009  0.70924064    -0.12800
C4538       C  0.68723218  0.00238468  0.75260400    -0.14400
C4539       C  0.68724704  0.00159457  0.25251865    -0.12800
C4540       C  0.68740989  0.00339777  0.20908626    -0.14400
C4541       C  0.69589043  0.11720516  0.55375086    -0.12800
C4542       C  0.69579877  0.13971313  0.56526132    -0.14400
C4543       C  0.63046577  0.00840824  0.55842348    -0.12800
C4544       C  0.61839860  0.00845430  0.56165840    -0.14400
C4545       C  0.50400181  0.75534651  0.63912592    -0.12800
C4546       C  0.49293947  0.75740693  0.62175031    -0.14400
C4547       C  0.56607407  0.89052667  0.68700513    -0.12800
C4548       C  0.56619815  0.86736751  0.68250941    -0.14400
C4549       C  0.49332380  0.75706541  0.11793451    -0.12800
C4550       C  0.50432103  0.75448675  0.13548537    -0.14400
C4551       C  0.56606988  0.89057161  0.18685942    -0.12800
C4552       C  0.56603296  0.86741406  0.18233749    -0.14400
C4553       C  0.56133218  0.75549301  0.00239750    -0.12800
C4554       C  0.56116408  0.75329612  0.95904116    -0.14400
C4555       C  0.56133979  0.75331692  0.45886812    -0.12800
C4556       C  0.56155698  0.75526102  0.50225976    -0.14400
C4557       C  0.74499468  0.75511335  0.97934084    -0.12800
C4558       C  0.75603704  0.75712415  0.99678362    -0.14400
C4559       C  0.68277709  0.86712667  0.93714516    -0.12800
C4560       C  0.68268443  0.89025910  0.93213294    -0.14400
C4561       C  0.63046281  0.74935747  0.81137227    -0.12800
C4562       C  0.61840850  0.74935345  0.80780423    -0.14400
C4563       C  0.74478486  0.75432384  0.47922763    -0.12800
C4564       C  0.75585926  0.75652447  0.49640839    -0.14400
C4565       C  0.68257707  0.86664549  0.43841299    -0.12800
C4566       C  0.68253840  0.88980950  0.43393030    -0.14400
C4567       C  0.68751442  0.75235065  0.65974141    -0.12800
C4568       C  0.68735241  0.75427130  0.61635895    -0.14400
C4569       C  0.68750203  0.75343606  0.15965975    -0.12800
C4570       C  0.68747069  0.75540428  0.11628417    -0.14400
C4571       C  0.63035178  0.74941506  0.31115304    -0.12800
C4572       C  0.61830081  0.74958027  0.30774305    -0.14400
C4573       C  0.50394408  0.50191460  0.97778662    -0.12800
C4574       C  0.49293358  0.49967325  0.99532688    -0.14400
C4575       C  0.56575123  0.39036390  0.93583274    -0.12800
C4576       C  0.56580612  0.36718354  0.93130818    -0.14400
C4577       C  0.55325061  0.61777614  0.81553393    -0.12800
C4578       C  0.55317020  0.64024006  0.80407469    -0.14400
C4579       C  0.49288158  0.49972670  0.49586468    -0.12800
C4580       C  0.50388139  0.50182401  0.47823435    -0.14400
C4581       C  0.56615799  0.39060185  0.43568063    -0.12800
C4582       C  0.56619291  0.36741567  0.43145256    -0.14400
C4583       C  0.56195630  0.50211695  0.61570579    -0.12800
C4584       C  0.56168456  0.50365701  0.65914498    -0.14400
C4585       C  0.56141220  0.50300208  0.11569941    -0.12800
C4586       C  0.56107971  0.50479337  0.15907890    -0.14400
C4587       C  0.55329710  0.64019715  0.30290002    -0.12800
C4588       C  0.55316070  0.61780587  0.31483881    -0.14400
C4589       C  0.74475082  0.50311435  0.63831536    -0.12800
C4590       C  0.75578550  0.50095716  0.62077363    -0.14400
C4591       C  0.68246943  0.39055446  0.68013085    -0.12800
C4592       C  0.68241171  0.36738270  0.68438312    -0.14400
C4593       C  0.69563390  0.61713163  0.80610698    -0.12800
C4594       C  0.69560490  0.63974419  0.81673432    -0.14400
C4595       C  0.63032470  0.50798132  0.80709915    -0.12800
C4596       C  0.61825968  0.50797172  0.81028078    -0.14400
C4597       C  0.74455095  0.50343863  0.13604745    -0.12800
C4598       C  0.75555236  0.50108030  0.11827380    -0.14400
C4599       C  0.68257524  0.36725381  0.18448234    -0.12800
C4600       C  0.68252966  0.39044604  0.18018871    -0.14400
C4601       C  0.68745622  0.50317660  0.95863222    -0.12800
C4602       C  0.68715846  0.50139729  0.00200610    -0.14400
C4603       C  0.68745179  0.50368998  0.45875834    -0.12800
C4604       C  0.68718251  0.50190091  0.50218230    -0.14400
C4605       C  0.69533889  0.61738527  0.30301986    -0.12800
C4606       C  0.69534464  0.63994832  0.31381158    -0.14400
C4607       C  0.61810691  0.50841014  0.30940129    -0.12800
C4608       C  0.63017223  0.50813575  0.30619624    -0.14400
loop_ 
_geom_bond_atom_site_label_1 
_geom_bond_atom_site_label_2 
_geom_bond_distance 
_geom_bond_site_symmetry_2 
_ccdc_geom_bond_type 
Zr1           O2   2.441       .  S
Zr1           O3   2.455       .  S
Zr1           O4   2.475       .  S
Zr1           O7   2.426       .  S
Zr1           O9   2.378       .  S
Zr1          O10   2.390       .  S
Zr1          O11   2.406       .  S
Zr1          O12   2.413       .  S
O2           H58   0.990       .  S
O2           H66   0.991       .  S
O3           C23   1.285       .  A
O4           C25   1.290       .  A
O5          Zr15   2.437       .  S
O5           C24   1.285       .  A
O6          Zr14   2.409       .  S
O6           C25   1.278       .  A
O7           C24   1.281       .  A
O8          Zr16   2.402       .  S
O8           C23   1.275       .  A
O9          Zr14   2.400       .  S
O9          Zr16   2.391       .  S
O10         Zr15   2.395       .  S
O10         Zr16   2.369       .  S
O10          H45   0.966       .  S
O11         Zr14   2.399       .  S
O11         Zr31   2.375       .  S
O11          H48   0.963       .  S
O12         Zr15   2.388       .  S
O12         Zr31   2.388       .  S
Zr13         O38   2.442       .  S
Zr13         O32   2.463       .  S
Zr13         O40   2.440       .  S
Zr13         O28   2.460       .  S
Zr13         O19   2.411       .  S
Zr13         O20   2.412       .  S
Zr13         O21   2.373       .  S
Zr13         O22   2.387       .  S
Zr14         O33   2.436       .  S
Zr14         O26   2.435       .  S
Zr14         O27   2.412       .  S
Zr14         O20   2.399       .  S
Zr14         O21   2.395       .  S
Zr15         O17   2.435       .  S
Zr15         O39   2.437       .  S
Zr15         O41   2.426       .  S
Zr15         O19   2.394       .  S
Zr15         O22   2.396       .  S
Zr16         O42   2.435       .  S
Zr16         O43   2.436       .  S
Zr16         O18   2.438       .  S
Zr16         O19   2.392       .  S
Zr16         O20   2.375       .  S
O17          H54   0.990       .  S
O18          H49   0.991       .  S
O18          H63   0.990       .  S
O20          H46   0.964       .  S
O21         Zr31   2.391       .  S
O22         Zr31   2.376       .  S
O22          H47   0.966       .  S
C23        C4602   1.436       .  S
C24        C4597   1.434       .  S
C25        C4600   1.436       .  S
O26          H62   0.990       .  S
O27          C29   1.279       .  A
O28          C29   1.286       .  A
C29        C4608   1.428       .  S
O30         Zr31   2.441       .  S
O30          H59   0.990       .  S
Zr31         O34   2.437       .  S
Zr31         O35   2.441       .  S
Zr31         O36   2.401       .  S
O32          C37   1.287       .  A
O33          H50   0.990       .  S
O33          H65   0.990       .  S
O34          H51   0.990       .  S
O35          H55   0.990       .  S
O35          H64   0.989       .  S
O36          C37   1.275       .  A
C37        C4603   1.439       .  S
O38          H57   0.991       .  S
O38          H61   0.990       .  S
O39          H53   0.990       .  S
O39          H60   0.990       .  S
O40          C44   1.284       .  A
O41          C44   1.282       .  A
O42          H52   0.990       .  S
O43          H56   0.990       .  S
C44        C4605   1.436       .  S
Zr67         O68   2.442       .  S
Zr67         O69   2.457       .  S
Zr67         O70   2.475       .  S
Zr67         O73   2.428       .  S
Zr67         O75   2.379       .  S
Zr67         O76   2.390       .  S
Zr67         O77   2.406       .  S
Zr67         O78   2.414       .  S
O68         H124   0.990       .  S
O68         H132   0.991       .  S
O69          C89   1.286       .  A
O70          C91   1.290       .  A
O71         Zr81   2.435       .  S
O71          C90   1.284       .  A
O72         Zr80   2.408       .  S
O72          C91   1.278       .  A
O73          C90   1.282       .  A
O74         Zr82   2.402       .  S
O74          C89   1.275       .  A
O75         Zr80   2.402       .  S
O75         Zr82   2.391       .  S
O76         Zr81   2.394       .  S
O76         Zr82   2.370       .  S
O76         H111   0.966       .  S
O77         Zr80   2.399       .  S
O77         Zr97   2.373       .  S
O77         H114   0.963       .  S
O78         Zr81   2.390       .  S
O78         Zr97   2.387       .  S
Zr79        O104   2.444       .  S
Zr79         O98   2.460       .  S
Zr79        O106   2.437       .  S
Zr79         O94   2.458       .  S
Zr79         O85   2.411       .  S
Zr79         O86   2.412       .  S
Zr79         O87   2.374       .  S
Zr79         O88   2.388       .  S
Zr80         O99   2.436       .  S
Zr80         O92   2.434       .  S
Zr80         O93   2.410       .  S
Zr80         O86   2.399       .  S
Zr80         O87   2.394       .  S
Zr81         O83   2.436       .  S
Zr81        O105   2.438       .  S
Zr81        O107   2.433       .  S
Zr81         O85   2.392       .  S
Zr81         O88   2.396       .  S
Zr82        O108   2.435       .  S
Zr82        O109   2.436       .  S
Zr82         O84   2.437       .  S
Zr82         O85   2.392       .  S
Zr82         O86   2.373       .  S
O83         H120   0.990       .  S
O84         H115   0.991       .  S
O84         H129   0.990       .  S
O86         H112   0.963       .  S
O87         Zr97   2.390       .  S
O88         Zr97   2.377       .  S
O88         H113   0.966       .  S
C89        C4604   1.438       .  S
C90        C4589   1.433       .  S
C91        C4591   1.434       .  S
O92         H128   0.990       .  S
O93          C95   1.278       .  A
O94          C95   1.286       .  A
C95        C4595   1.427       .  S
O96         Zr97   2.440       .  S
O96         H125   0.990       .  S
Zr97        O100   2.438       .  S
Zr97        O101   2.444       .  S
Zr97        O102   2.397       .  S
O98         C103   1.287       .  A
O99         H116   0.990       .  S
O99         H131   0.990       .  S
O100        H117   0.990       .  S
O101        H121   0.990       .  S
O101        H130   0.989       .  S
O102        C103   1.275       .  A
C103       C4601   1.436       .  S
O104        H123   0.991       .  S
O104        H127   0.989       .  S
O105        H119   0.990       .  S
O105        H126   0.990       .  S
O106        C110   1.284       .  A
O107        C110   1.284       .  A
O108        H118   0.990       .  S
O109        H122   0.990       .  S
C110       C4593   1.439       .  S
Zr133       O134   2.442       .  S
Zr133       O135   2.464       .  S
Zr133       O136   2.478       .  S
Zr133       O139   2.424       .  S
Zr133       O141   2.374       .  S
Zr133       O142   2.392       .  S
Zr133       O143   2.409       .  S
Zr133       O144   2.417       .  S
O134        H190   0.990       .  S
O134        H198   0.991       .  S
O135        C155   1.287       .  A
O136        C157   1.290       .  A
O137       Zr147   2.434       .  S
O137        C156   1.284       .  A
O138       Zr146   2.409       .  S
O138        C157   1.278       .  A
O139        C156   1.281       .  A
O140       Zr148   2.394       .  S
O140        C155   1.274       .  A
O141       Zr146   2.401       .  S
O141       Zr148   2.390       .  S
O142       Zr147   2.396       .  S
O142       Zr148   2.372       .  S
O142        H177   0.966       .  S
O143       Zr146   2.401       .  S
O143       Zr163   2.378       .  S
O143        H180   0.963       .  S
O144       Zr147   2.390       .  S
O144       Zr163   2.389       .  S
Zr145       O170   2.441       .  S
Zr145       O164   2.456       .  S
Zr145       O172   2.433       .  S
Zr145       O160   2.460       .  S
Zr145       O151   2.413       .  S
Zr145       O152   2.410       .  S
Zr145       O153   2.374       .  S
Zr145       O154   2.388       .  S
Zr146       O165   2.435       .  S
Zr146       O158   2.437       .  S
Zr146       O159   2.408       .  S
Zr146       O152   2.401       .  S
Zr146       O153   2.395       .  S
Zr147       O149   2.435       .  S
Zr147       O171   2.438       .  S
Zr147       O173   2.432       .  S
Zr147       O151   2.393       .  S
Zr147       O154   2.395       .  S
Zr148       O174   2.435       .  S
Zr148       O175   2.435       .  S
Zr148       O150   2.439       .  S
Zr148       O151   2.395       .  S
Zr148       O152   2.372       .  S
O149        H186   0.990       .  S
O150        H181   0.990       .  S
O150        H195   0.990       .  S
O152        H178   0.963       .  S
O153       Zr163   2.390       .  S
O154       Zr163   2.377       .  S
O154        H179   0.965       .  S
C155       C4583   1.437       .  S
C156       C4580   1.429       .  S
C157       C4581   1.435       .  S
O158        H194   0.990       .  S
O159        C161   1.278       .  A
O160        C161   1.287       .  A
C161       C4607   1.427       .  S
O162       Zr163   2.444       .  S
O162        H191   0.990       .  S
Zr163       O166   2.438       .  S
Zr163       O167   2.443       .  S
Zr163       O168   2.402       .  S
O164        C169   1.286       .  A
O165        H182   0.990       .  S
O165        H197   0.990       .  S
O166        H183   0.990       .  S
O167        H187   0.990       .  S
O167        H196   0.989       .  S
O168        C169   1.275       .  A
C169       C4586   1.436       .  S
O170        H189   0.991       .  S
O170        H193   0.989       .  S
O171        H185   0.990       .  S
O171        H192   0.990       .  S
O172        C176   1.282       .  A
O173        C176   1.283       .  A
O174        H184   0.990       .  S
O175        H188   0.990       .  S
C176       C4588   1.436       .  S
Zr199       O200   2.442   1_556  S
Zr199       O201   2.460   1_556  S
Zr199       O202   2.477       .  S
Zr199       O205   2.424       .  S
Zr199       O207   2.379       .  S
Zr199       O208   2.393       .  S
Zr199       O209   2.408       .  S
Zr199       O210   2.416       .  S
O200        H256   0.990       .  S
O200        H264   0.991   1_554  S
O201        C221   1.286       .  A
O202        C223   1.290       .  A
O203       Zr213   2.434       .  S
O203        C222   1.284       .  A
O204       Zr212   2.412       .  S
O204        C223   1.278       .  A
O205        C222   1.281       .  A
O206       Zr214   2.399   1_554  S
O206        C221   1.274       .  A
O207       Zr212   2.401       .  S
O207       Zr214   2.394       .  S
O208       Zr213   2.395       .  S
O208       Zr214   2.373       .  S
O208        H243   0.966       .  S
O209       Zr212   2.396       .  S
O209       Zr229   2.374       .  S
O209        H246   0.963       .  S
O210       Zr213   2.387       .  S
O210       Zr229   2.391       .  S
Zr211       O236   2.440       .  S
Zr211       O230   2.459       .  S
Zr211       O238   2.439       .  S
Zr211       O226   2.460       .  S
Zr211       O217   2.410       .  S
Zr211       O218   2.413       .  S
Zr211       O219   2.373       .  S
Zr211       O220   2.387       .  S
Zr212       O231   2.435       .  S
Zr212       O224   2.433       .  S
Zr212       O225   2.407       .  S
Zr212       O218   2.401       .  S
Zr212       O219   2.394       .  S
Zr213       O215   2.434       .  S
Zr213       O237   2.439       .  S
Zr213       O239   2.426       .  S
Zr213       O217   2.393       .  S
Zr213       O220   2.395       .  S
Zr214       O240   2.437   1_556  S
Zr214       O241   2.436       .  S
Zr214       O216   2.438       .  S
Zr214       O217   2.392       .  S
Zr214       O218   2.373       .  S
O215        H252   0.990       .  S
O216        H247   0.991   1_556  S
O216        H261   0.990   1_556  S
O218        H244   0.963       .  S
O219       Zr229   2.386       .  S
O220       Zr229   2.377       .  S
O220        H245   0.965       .  S
C221       C4585   1.436       .  S
C222       C4573   1.430       .  S
C223       C4575   1.436       .  S
O224        H260   0.990       .  S
O225        C227   1.278       .  A
O226        C227   1.287       .  A
C227       C4596   1.427       .  S
O228       Zr229   2.442       .  S
O228        H257   0.990       .  S
Zr229       O232   2.438       .  S
Zr229       O233   2.442       .  S
Zr229       O234   2.401       .  S
O230        C235   1.286       .  A
O231        H248   0.990       .  S
O231        H263   0.990       .  S
O232        H249   0.990       .  S
O233        H253   0.990       .  S
O233        H262   0.990       .  S
O234        C235   1.276       .  A
C235       C4584   1.437       .  S
O236        H255   0.991       .  S
O236        H259   0.989       .  S
O237        H251   0.990       .  S
O237        H258   0.990       .  S
O238        C242   1.284       .  A
O239        C242   1.282       .  A
O240        H250   0.991       .  S
O241        H254   0.990       .  S
C242       C4577   1.436       .  S
Zr265       O266   2.444       .  S
Zr265       O267   2.461       .  S
Zr265       O268   2.476       .  S
Zr265       O271   2.428       .  S
Zr265       O273   2.377       .  S
Zr265       O274   2.391       .  S
Zr265       O275   2.409       .  S
Zr265       O276   2.416       .  S
O266        H322   0.990       .  S
O266        H330   0.991       .  S
O267        C287   1.287       .  A
O268        C289   1.289       .  A
O269       Zr279   2.434       .  S
O269        C288   1.284       .  A
O270       Zr278   2.409       .  S
O270        C289   1.278       .  A
O271        C288   1.282       .  A
O272       Zr280   2.398       .  S
O272        C287   1.274       .  A
O273       Zr278   2.399       .  S
O273       Zr280   2.391       .  S
O274       Zr279   2.395       .  S
O274       Zr280   2.371       .  S
O274        H309   0.966       .  S
O275       Zr278   2.397       .  S
O275       Zr295   2.375       .  S
O275        H312   0.963       .  S
O276       Zr279   2.390       .  S
O276       Zr295   2.390       .  S
Zr277       O302   2.442       .  S
Zr277       O296   2.461       .  S
Zr277       O304   2.435       .  S
Zr277       O292   2.456       .  S
Zr277       O283   2.410       .  S
Zr277       O284   2.412       .  S
Zr277       O285   2.374       .  S
Zr277       O286   2.386       .  S
Zr278       O297   2.436       .  S
Zr278       O290   2.434       .  S
Zr278       O291   2.409       .  S
Zr278       O284   2.398       .  S
Zr278       O285   2.395       .  S
Zr279       O281   2.435       .  S
Zr279       O303   2.437       .  S
Zr279       O305   2.430       .  S
Zr279       O283   2.390       .  S
Zr279       O286   2.393       .  S
Zr280       O306   2.434       .  S
Zr280       O307   2.436       .  S
Zr280       O282   2.438       .  S
Zr280       O283   2.390       .  S
Zr280       O284   2.374       .  S
O281        H318   0.990       .  S
O282        H313   0.991       .  S
O282        H327   0.990       .  S
O284        H310   0.964       .  S
O285       Zr295   2.389       .  S
O286       Zr295   2.375       .  S
O286        H311   0.965       .  S
C287       C4568   1.437       .  S
C288       C4563   1.432       .  S
C289       C4565   1.434       .  S
O290        H326   0.990       .  S
O291        C293   1.279       .  A
O292        C293   1.286       .  A
C293       C4571   1.426       .  S
O294       Zr295   2.440       .  S
O294        H323   0.990       .  S
Zr295       O298   2.439       .  S
Zr295       O299   2.443       .  S
Zr295       O300   2.396       .  S
O296        C301   1.287       .  A
O297        H314   0.990       .  S
O297        H329   0.990       .  S
O298        H315   0.990       .  S
O299        H319   0.990       .  S
O299        H328   0.990       .  S
O300        C301   1.274       .  A
C301       C4569   1.436       .  S
O302        H321   0.991       .  S
O302        H325   0.989       .  S
O303        H317   0.990       .  S
O303        H324   0.990       .  S
O304        C308   1.283       .  A
O305        C308   1.283       .  A
O306        H316   0.990       .  S
O307        H320   0.990       .  S
C308       C4606   1.436       .  S
Zr331       O332   2.443   1_556  S
Zr331       O333   2.463   1_556  S
Zr331       O334   2.475       .  S
Zr331       O337   2.425       .  S
Zr331       O339   2.378       .  S
Zr331       O340   2.390       .  S
Zr331       O341   2.409       .  S
Zr331       O342   2.415       .  S
O332        H388   0.990       .  S
O332        H396   0.991   1_554  S
O333        C353   1.287       .  A
O334        C355   1.290       .  A
O335       Zr345   2.433       .  S
O335        C354   1.284       .  A
O336       Zr344   2.409       .  S
O336        C355   1.278       .  A
O337        C354   1.281       .  A
O338       Zr346   2.395   1_554  S
O338        C353   1.274       .  A
O339       Zr344   2.400       .  S
O339       Zr346   2.392       .  S
O340       Zr345   2.394       .  S
O340       Zr346   2.373       .  S
O340        H375   0.966       .  S
O341       Zr344   2.397       .  S
O341       Zr361   2.374       .  S
O341        H378   0.963       .  S
O342       Zr345   2.388       .  S
O342       Zr361   2.389       .  S
Zr343       O368   2.441       .  S
Zr343       O362   2.459       .  S
Zr343       O370   2.440       .  S
Zr343       O358   2.459       .  S
Zr343       O349   2.409       .  S
Zr343       O350   2.411       .  S
Zr343       O351   2.376       .  S
Zr343       O352   2.387       .  S
Zr344       O363   2.435       .  S
Zr344       O356   2.435       .  S
Zr344       O357   2.411       .  S
Zr344       O350   2.396       .  S
Zr344       O351   2.395       .  S
Zr345       O347   2.435       .  S
Zr345       O369   2.437       .  S
Zr345       O371   2.429       .  S
Zr345       O349   2.390       .  S
Zr345       O352   2.394       .  S
Zr346       O372   2.435   1_556  S
Zr346       O373   2.437       .  S
Zr346       O348   2.437   1_556  S
Zr346       O349   2.390       .  S
Zr346       O350   2.370       .  S
O347        H384   0.990       .  S
O348        H379   0.991       .  S
O348        H393   0.990       .  S
O350        H376   0.964       .  S
O351       Zr361   2.389       .  S
O352       Zr361   2.377       .  S
O352        H377   0.965       .  S
C353       C4570   1.436       .  S
C354       C4557   1.431       .  S
C355       C4559   1.434       .  S
O356        H392   0.990       .  S
O357        C359   1.279       .  A
O358        C359   1.286       .  A
C359       C4561   1.427       .  S
O360       Zr361   2.442       .  S
O360        H389   0.990       .  S
Zr361       O364   2.440       .  S
Zr361       O365   2.441       .  S
Zr361       O366   2.398       .  S
O362        C367   1.287       .  A
O363        H380   0.990       .  S
O363        H395   0.990       .  S
O364        H381   0.990       .  S
O365        H385   0.990       .  S
O365        H394   0.989       .  S
O366        C367   1.275       .  A
C367       C4567   1.436       .  S
O368        H387   0.991       .  S
O368        H391   0.990       .  S
O369        H383   0.990       .  S
O369        H390   0.990       .  S
O370        C374   1.284       .  A
O371        C374   1.283       .  A
O372        H382   0.990       .  S
O373        H386   0.990       .  S
C374       C4594   1.439       .  S
Zr397       O398   2.443       .  S
Zr397       O399   2.462       .  S
Zr397       O400   2.474       .  S
Zr397       O403   2.423       .  S
Zr397       O405   2.379       .  S
Zr397       O406   2.391       .  S
Zr397       O407   2.410       .  S
Zr397       O408   2.415       .  S
O398        H454   0.990       .  S
O398        H462   0.991       .  S
O399        C419   1.287       .  A
O400        C421   1.289       .  A
O401       Zr411   2.435       .  S
O401        C420   1.284       .  A
O402       Zr410   2.408       .  S
O402        C421   1.278       .  A
O403        C420   1.281       .  A
O404       Zr412   2.396       .  S
O404        C419   1.274       .  A
O405       Zr410   2.403       .  S
O405       Zr412   2.392       .  S
O406       Zr411   2.396       .  S
O406       Zr412   2.371       .  S
O406        H441   0.965       .  S
O407       Zr410   2.396       .  S
O407       Zr427   2.375       .  S
O407        H444   0.963       .  S
O408       Zr411   2.387       .  S
O408       Zr427   2.389       .  S
Zr409       O434   2.441       .  S
Zr409       O428   2.461       .  S
Zr409       O436   2.436       .  S
Zr409       O424   2.454       .  S
Zr409       O415   2.410       .  S
Zr409       O416   2.413       .  S
Zr409       O417   2.374       .  S
Zr409       O418   2.386       .  S
Zr410       O429   2.436       .  S
Zr410       O422   2.434       .  S
Zr410       O423   2.410       .  S
Zr410       O416   2.399       .  S
Zr410       O417   2.392       .  S
Zr411       O413   2.437       .  S
Zr411       O435   2.436       .  S
Zr411       O437   2.430       .  S
Zr411       O415   2.394       .  S
Zr411       O418   2.393       .  S
Zr412       O438   2.434       .  S
Zr412       O439   2.435       .  S
Zr412       O414   2.437       .  S
Zr412       O415   2.392       .  S
Zr412       O416   2.370       .  S
O413        H450   0.990       .  S
O414        H445   0.991       .  S
O414        H459   0.990       .  S
O416        H442   0.964       .  S
O417       Zr427   2.389       .  S
O418       Zr427   2.375       .  S
O418        H443   0.966       .  S
C419       C4553   1.437       .  S
C420       C4550   1.431       .  S
C421       C4552   1.434       .  S
O422        H458   0.990       .  S
O423        C425   1.279       .  A
O424        C425   1.285       .  A
C425       C4572   1.426       .  S
O426       Zr427   2.440       .  S
O426        H455   0.990       .  S
Zr427       O430   2.439       .  S
Zr427       O431   2.443       .  S
Zr427       O432   2.397       .  S
O428        C433   1.287       .  A
O429        H446   0.990       .  S
O429        H461   0.990       .  S
O430        H447   0.990       .  S
O431        H451   0.990       .  S
O431        H460   0.990       .  S
O432        C433   1.275       .  A
C433       C4555   1.437       .  S
O434        H453   0.991       .  S
O434        H457   0.990       .  S
O435        H449   0.990       .  S
O435        H456   0.990       .  S
O436        C440   1.284       .  A
O437        C440   1.283       .  A
O438        H448   0.990       .  S
O439        H452   0.990       .  S
C440       C4587   1.436       .  S
Zr463       O464   2.444       .  S
Zr463       O465   2.462       .  S
Zr463       O466   2.479       .  S
Zr463       O469   2.430       .  S
Zr463       O471   2.378       .  S
Zr463       O472   2.392       .  S
Zr463       O473   2.408       .  S
Zr463       O474   2.416       .  S
O464        H520   0.990       .  S
O464        H528   0.991       .  S
O465        C485   1.287       .  A
O466        C487   1.290       .  A
O467       Zr477   2.433       .  S
O467        C486   1.284       .  A
O468       Zr476   2.408       .  S
O468        C487   1.278       .  A
O469        C486   1.282       .  A
O470       Zr478   2.399       .  S
O470        C485   1.274       .  A
O471       Zr476   2.402       .  S
O471       Zr478   2.393       .  S
O472       Zr477   2.395       .  S
O472       Zr478   2.371       .  S
O472        H507   0.966       .  S
O473       Zr476   2.398       .  S
O473       Zr493   2.374       .  S
O473        H510   0.964       .  S
O474       Zr477   2.389       .  S
O474       Zr493   2.390       .  S
Zr475       O500   2.441       .  S
Zr475       O494   2.461       .  S
Zr475       O502   2.435       .  S
Zr475       O490   2.460       .  S
Zr475       O481   2.410       .  S
Zr475       O482   2.411       .  S
Zr475       O483   2.375       .  S
Zr475       O484   2.388       .  S
Zr476       O495   2.436       .  S
Zr476       O488   2.436       .  S
Zr476       O489   2.407       .  S
Zr476       O482   2.398       .  S
Zr476       O483   2.395       .  S
Zr477       O479   2.435       .  S
Zr477       O501   2.439       .  S
Zr477       O503   2.432       .  S
Zr477       O481   2.390       .  S
Zr477       O484   2.394       .  S
Zr478       O504   2.437       .  S
Zr478       O505   2.435       .  S
Zr478       O480   2.438       .  S
Zr478       O481   2.389       .  S
Zr478       O482   2.373       .  S
O479        H516   0.990       .  S
O480        H511   0.990       .  S
O480        H525   0.990       .  S
O482        H508   0.962       .  S
O483       Zr493   2.390       .  S
O484       Zr493   2.376       .  S
O484        H509   0.966       .  S
C485       C4556   1.437       .  S
C486       C4545   1.433       .  S
C487       C4548   1.434       .  S
O488        H524   0.990       .  S
O489        C491   1.278       .  A
O490        C491   1.286       .  A
C491       C4562   1.427       .  S
O492       Zr493   2.442       .  S
O492        H521   0.990       .  S
Zr493       O496   2.438       .  S
Zr493       O497   2.443       .  S
Zr493       O498   2.398       .  S
O494        C499   1.287       .  A
O495        H512   0.990       .  S
O495        H527   0.990       .  S
O496        H513   0.990       .  S
O497        H517   0.990       .  S
O497        H526   0.989       .  S
O498        C499   1.275       .  A
C499       C4554   1.437       .  S
O500        H519   0.991       .  S
O500        H523   0.990       .  S
O501        H515   0.990       .  S
O501        H522   0.990       .  S
O502        C506   1.283       .  A
O503        C506   1.283       .  A
O504        H514   0.990       .  S
O505        H518   0.990       .  S
C506       C4578   1.436       .  S
Zr529       O530   2.444       .  S
Zr529       O531   2.463       .  S
Zr529       O532   2.477       .  S
Zr529       O535   2.430       .  S
Zr529       O537   2.379       .  S
Zr529       O538   2.391   1_565  S
Zr529       O539   2.410       .  S
Zr529       O540   2.415       .  S
O530        H586   0.990       .  S
O530        H594   0.991       .  S
O531        C551   1.287   1_565  A
O532        C553   1.290       .  A
O533       Zr543   2.440       .  S
O533        C552   1.285       .  A
O534       Zr542   2.410       .  S
O534        C553   1.278       .  A
O535        C552   1.282   1_565  A
O536       Zr544   2.399       .  S
O536        C551   1.275       .  A
O537       Zr542   2.402       .  S
O537       Zr544   2.392   1_565  S
O538       Zr543   2.396       .  S
O538       Zr544   2.371       .  S
O538        H573   0.966       .  S
O539       Zr542   2.400       .  S
O539       Zr559   2.373       .  S
O539        H576   0.963       .  S
O540       Zr543   2.388   1_565  S
O540       Zr559   2.389       .  S
Zr541       O566   2.442       .  S
Zr541       O560   2.457       .  S
Zr541       O568   2.437       .  S
Zr541       O556   2.458       .  S
Zr541       O547   2.412       .  S
Zr541       O548   2.411       .  S
Zr541       O549   2.376   1_545  S
Zr541       O550   2.388       .  S
Zr542       O561   2.436       .  S
Zr542       O554   2.436       .  S
Zr542       O555   2.410       .  S
Zr542       O548   2.400   1_565  S
Zr542       O549   2.396       .  S
Zr543       O545   2.435       .  S
Zr543       O567   2.437       .  S
Zr543       O569   2.436       .  S
Zr543       O547   2.394       .  S
Zr543       O550   2.396       .  S
Zr544       O570   2.434       .  S
Zr544       O571   2.436       .  S
Zr544       O546   2.437       .  S
Zr544       O547   2.393       .  S
Zr544       O548   2.373       .  S
O545        H582   0.990       .  S
O546        H577   0.990       .  S
O546        H591   0.990       .  S
O548        H574   0.963       .  S
O549       Zr559   2.389       .  S
O550       Zr559   2.376   1_545  S
O550        H575   0.965       .  S
C551       C4539   1.438       .  S
C552       C4535   1.436       .  S
C553       C4566   1.435       .  S
O554        H590   0.990       .  S
O555        C557   1.278   1_565  A
O556        C557   1.286       .  A
C557       C4543   1.428       .  S
O558       Zr559   2.439       .  S
O558        H587   0.990       .  S
Zr559       O562   2.440       .  S
Zr559       O563   2.443       .  S
Zr559       O564   2.399       .  S
O560        C565   1.286       .  A
O561        H578   0.990       .  S
O561        H593   0.990       .  S
O562        H579   0.990       .  S
O563        H583   0.990       .  S
O563        H592   0.989   1_565  S
O564        C565   1.275   1_565  A
C565       C4537   1.436       .  S
O566        H585   0.991       .  S
O566        H589   0.990       .  S
O567        H581   0.990       .  S
O567        H588   0.990       .  S
O568        C572   1.284       .  A
O569        C572   1.284       .  A
O570        H580   0.990       .  S
O571        H584   0.990       .  S
C572       C4541   1.440       .  S
Zr595       O596   2.441       .  S
Zr595       O597   2.459       .  S
Zr595       O598   2.474       .  S
Zr595       O601   2.430       .  S
Zr595       O603   2.379       .  S
Zr595       O604   2.390   1_565  S
Zr595       O605   2.410       .  S
Zr595       O606   2.413       .  S
O596        H652   0.990       .  S
O596        H660   0.991       .  S
O597        C617   1.286   1_565  A
O598        C619   1.289       .  A
O599       Zr609   2.436       .  S
O599        C618   1.284       .  A
O600       Zr608   2.411       .  S
O600        C619   1.278       .  A
O601        C618   1.282   1_565  A
O602       Zr610   2.399       .  S
O602        C617   1.274       .  A
O603       Zr608   2.400       .  S
O603       Zr610   2.392   1_565  S
O604       Zr609   2.395       .  S
O604       Zr610   2.371       .  S
O604        H639   0.966       .  S
O605       Zr608   2.400       .  S
O605       Zr625   2.374   1_556  S
O605        H642   0.964       .  S
O606       Zr609   2.389   1_565  S
O606       Zr625   2.389   1_556  S
Zr607       O632   2.442       .  S
Zr607       O626   2.461       .  S
Zr607       O634   2.438       .  S
Zr607       O622   2.454       .  S
Zr607       O613   2.409   1_554  S
Zr607       O614   2.413   1_554  S
Zr607       O615   2.373   1_545  S
Zr607       O616   2.385       .  S
Zr608       O627   2.435   1_556  S
Zr608       O620   2.435       .  S
Zr608       O621   2.410   1_556  S
Zr608       O614   2.398   1_565  S
Zr608       O615   2.395   1_556  S
Zr609       O611   2.436   1_556  S
Zr609       O633   2.438       .  S
Zr609       O635   2.430   1_556  S
Zr609       O613   2.395       .  S
Zr609       O616   2.396   1_556  S
Zr610       O636   2.437       .  S
Zr610       O637   2.436       .  S
Zr610       O612   2.437       .  S
Zr610       O613   2.391       .  S
Zr610       O614   2.375       .  S
O611        H648   0.990       .  S
O612        H643   0.991       .  S
O612        H657   0.990       .  S
O614        H640   0.964       .  S
O615       Zr625   2.388       .  S
O616       Zr625   2.376   1_545  S
O616        H641   0.965       .  S
C617       C4538   1.437       .  S
C618       C4529   1.435       .  S
C619       C4560   1.434       .  S
O620        H656   0.990       .  S
O621        C623   1.278   1_565  A
O622        C623   1.286       .  A
C623       C4533   1.426       .  S
O624       Zr625   2.440       .  S
O624        H653   0.990       .  S
Zr625       O628   2.440       .  S
Zr625       O629   2.443       .  S
Zr625       O630   2.397       .  S
O626        C631   1.287       .  A
O627        H644   0.990       .  S
O627        H659   0.990       .  S
O628        H645   0.990       .  S
O629        H649   0.990       .  S
O629        H658   0.989   1_565  S
O630        C631   1.275   1_565  A
C631       C4540   1.438       .  S
O632        H651   0.991       .  S
O632        H655   0.990       .  S
O633        H647   0.990       .  S
O633        H654   0.990       .  S
O634        C638   1.284       .  A
O635        C638   1.283       .  A
O636        H646   0.990       .  S
O637        H650   0.990       .  S
C638       C4531   1.437       .  S
Zr661       O662   2.441       .  S
Zr661       O663   2.460       .  S
Zr661       O664   2.474       .  S
Zr661       O667   2.429       .  S
Zr661       O669   2.377       .  S
Zr661       O670   2.389   1_565  S
Zr661       O671   2.410       .  S
Zr661       O672   2.413       .  S
O662        H718   0.990       .  S
O662        H726   0.991       .  S
O663        C683   1.286   1_565  A
O664        C685   1.289       .  A
O665       Zr675   2.430       .  S
O665        C684   1.283       .  A
O666       Zr674   2.407       .  S
O666        C685   1.278       .  A
O667        C684   1.282   1_565  A
O668       Zr676   2.400       .  S
O668        C683   1.275       .  A
O669       Zr674   2.400       .  S
O669       Zr676   2.392   1_565  S
O670       Zr675   2.396       .  S
O670       Zr676   2.371       .  S
O670        H705   0.966       .  S
O671       Zr674   2.398       .  S
O671       Zr691   2.374       .  S
O671        H708   0.963       .  S
O672       Zr675   2.386   1_565  S
O672       Zr691   2.389       .  S
Zr673       O698   2.441       .  S
Zr673       O692   2.459   1_554  S
Zr673       O700   2.439       .  S
Zr673       O688   2.461       .  S
Zr673       O679   2.409       .  S
Zr673       O680   2.412       .  S
Zr673       O681   2.375   1_545  S
Zr673       O682   2.389       .  S
Zr674       O693   2.436       .  S
Zr674       O686   2.434       .  S
Zr674       O687   2.404       .  S
Zr674       O680   2.400   1_565  S
Zr674       O681   2.394       .  S
Zr675       O677   2.437       .  S
Zr675       O699   2.438       .  S
Zr675       O701   2.426       .  S
Zr675       O679   2.391       .  S
Zr675       O682   2.395       .  S
Zr676       O702   2.436       .  S
Zr676       O703   2.437       .  S
Zr676       O678   2.436       .  S
Zr676       O679   2.390       .  S
Zr676       O680   2.374       .  S
O677        H714   0.990       .  S
O678        H709   0.991       .  S
O678        H723   0.990       .  S
O680        H706   0.964       .  S
O681       Zr691   2.387       .  S
O682       Zr691   2.377   1_545  S
O682        H707   0.965       .  S
C683       C4525   1.437       .  S
C684       C4521   1.431       .  S
C685       C4551   1.434       .  S
O686        H722   0.990       .  S
O687        C689   1.277   1_565  A
O688        C689   1.287       .  A
C689       C4534   1.426       .  S
O690       Zr691   2.440       .  S
O690        H719   0.990       .  S
Zr691       O694   2.438       .  S
Zr691       O695   2.441       .  S
Zr691       O696   2.398   1_554  S
O692        C697   1.287       .  A
O693        H710   0.990       .  S
O693        H725   0.990       .  S
O694        H711   0.990   1_554  S
O695        H715   0.990   1_554  S
O695        H724   0.989   1_565  S
O696        C697   1.275   1_565  A
C697       C4524   1.437       .  S
O698        H717   0.991       .  S
O698        H721   0.989   1_554  S
O699        H713   0.990       .  S
O699        H720   0.990       .  S
O700        C704   1.284       .  A
O701        C704   1.282       .  A
O702        H712   0.990       .  S
O703        H716   0.990       .  S
C704       C4527   1.436       .  S
Zr727       O728   2.443       .  S
Zr727       O729   2.460       .  S
Zr727       O730   2.475       .  S
Zr727       O733   2.428       .  S
Zr727       O735   2.379       .  S
Zr727       O736   2.391   1_565  S
Zr727       O737   2.409       .  S
Zr727       O738   2.415       .  S
O728        H784   0.990       .  S
O728        H792   0.991       .  S
O729        C749   1.287   1_565  A
O730        C751   1.290       .  A
O731       Zr741   2.430       .  S
O731        C750   1.283       .  A
O732       Zr740   2.409       .  S
O732        C751   1.278       .  A
O733        C750   1.281   1_565  A
O734       Zr742   2.397       .  S
O734        C749   1.274       .  A
O735       Zr740   2.399       .  S
O735       Zr742   2.392   1_565  S
O736       Zr741   2.395       .  S
O736       Zr742   2.371       .  S
O736        H771   0.966       .  S
O737       Zr740   2.400       .  S
O737       Zr757   2.373       .  S
O737        H774   0.963       .  S
O738       Zr741   2.392   1_565  S
O738       Zr757   2.391       .  S
Zr739       O764   2.442       .  S
Zr739       O758   2.459       .  S
Zr739       O766   2.442       .  S
Zr739       O754   2.463       .  S
Zr739       O745   2.411       .  S
Zr739       O746   2.413       .  S
Zr739       O747   2.375   1_545  S
Zr739       O748   2.391       .  S
Zr740       O759   2.435       .  S
Zr740       O752   2.434       .  S
Zr740       O753   2.410       .  S
Zr740       O746   2.399   1_565  S
Zr740       O747   2.396       .  S
Zr741       O743   2.434       .  S
Zr741       O765   2.440       .  S
Zr741       O767   2.429       .  S
Zr741       O745   2.392       .  S
Zr741       O748   2.400       .  S
Zr742       O768   2.435       .  S
Zr742       O769   2.437       .  S
Zr742       O744   2.438       .  S
Zr742       O745   2.391       .  S
Zr742       O746   2.370       .  S
O743        H780   0.990       .  S
O744        H775   0.991       .  S
O744        H789   0.990       .  S
O746        H772   0.963       .  S
O747       Zr757   2.389       .  S
O748       Zr757   2.379   1_545  S
O748        H773   0.965       .  S
C749       C4523   1.436       .  S
C750       C4517   1.430       .  S
C751       C4547   1.434       .  S
O752        H788   0.990       .  S
O753        C755   1.279   1_565  A
O754        C755   1.287       .  A
C755       C4544   1.428       .  S
O756       Zr757   2.441       .  S
O756        H785   0.990       .  S
Zr757       O760   2.439       .  S
Zr757       O761   2.444       .  S
Zr757       O762   2.400       .  S
O758        C763   1.286       .  A
O759        H776   0.990       .  S
O759        H791   0.990       .  S
O760        H777   0.990       .  S
O761        H781   0.990       .  S
O761        H790   0.989   1_565  S
O762        C763   1.275   1_565  A
C763       C4526   1.437       .  S
O764        H783   0.991       .  S
O764        H787   0.990       .  S
O765        H779   0.990       .  S
O765        H786   0.990       .  S
O766        C770   1.285       .  A
O767        C770   1.283       .  A
O768        H778   0.990       .  S
O769        H782   0.990       .  S
C770       C4520   1.439       .  S
Zr793       O794   2.442       .  S
Zr793       O795   2.462       .  S
Zr793       O796   2.478       .  S
Zr793       O799   2.426       .  S
Zr793       O801   2.376       .  S
Zr793       O802   2.392       .  S
Zr793       O803   2.409       .  S
Zr793       O804   2.415       .  S
O794        H850   0.990       .  S
O794        H858   0.991       .  S
O795        C815   1.287       .  A
O796        C817   1.290       .  A
O797       Zr807   2.437       .  S
O797        C816   1.285       .  A
O798       Zr806   2.408       .  S
O798        C817   1.278       .  A
O799        C816   1.281       .  A
O800       Zr808   2.398       .  S
O800        C815   1.274       .  A
O801       Zr806   2.400       .  S
O801       Zr808   2.393       .  S
O802       Zr807   2.395       .  S
O802       Zr808   2.372       .  S
O802        H837   0.966       .  S
O803       Zr806   2.395       .  S
O803       Zr823   2.374       .  S
O803        H840   0.962       .  S
O804       Zr807   2.386       .  S
O804       Zr823   2.387       .  S
Zr805       O830   2.441       .  S
Zr805       O824   2.462   1_554  S
Zr805       O832   2.439       .  S
Zr805       O820   2.463       .  S
Zr805       O811   2.410       .  S
Zr805       O812   2.410       .  S
Zr805       O813   2.373       .  S
Zr805       O814   2.389       .  S
Zr806       O825   2.436       .  S
Zr806       O818   2.433       .  S
Zr806       O819   2.403       .  S
Zr806       O812   2.399       .  S
Zr806       O813   2.393       .  S
Zr807       O809   2.435       .  S
Zr807       O831   2.437       .  S
Zr807       O833   2.428       .  S
Zr807       O811   2.393       .  S
Zr807       O814   2.395       .  S
Zr808       O834   2.434       .  S
Zr808       O835   2.437       .  S
Zr808       O810   2.437       .  S
Zr808       O811   2.390       .  S
Zr808       O812   2.374       .  S
O809        H846   0.990       .  S
O810        H841   0.991       .  S
O810        H855   0.990       .  S
O812        H838   0.964       .  S
O813       Zr823   2.389       .  S
O814       Zr823   2.376       .  S
O814        H839   0.965       .  S
C815       C4513   1.436       .  S
C816       C4510   1.433       .  S
C817       C4599   1.436       .  S
O818        H854   0.990       .  S
O819        C821   1.277       .  A
O820        C821   1.287       .  A
C821       C4516   1.426       .  S
O822       Zr823   2.442       .  S
O822        H851   0.990       .  S
Zr823       O826   2.437       .  S
Zr823       O827   2.443       .  S
Zr823       O828   2.399   1_554  S
O824        C829   1.287       .  A
O825        H842   0.990       .  S
O825        H857   0.990       .  S
O826        H843   0.990   1_554  S
O827        H847   0.990   1_554  S
O827        H856   0.990       .  S
O828        C829   1.275       .  A
C829       C4512   1.438       .  S
O830        H849   0.991       .  S
O830        H853   0.990   1_554  S
O831        H845   0.990       .  S
O831        H852   0.990       .  S
O832        C836   1.284       .  A
O833        C836   1.283       .  A
O834        H844   0.990       .  S
O835        H848   0.990       .  S
C836       C4532   1.437       .  S
Zr859       O860   2.444       .  S
Zr859       O861   2.463       .  S
Zr859       O862   2.473       .  S
Zr859       O865   2.429       .  S
Zr859       O867   2.379       .  S
Zr859       O868   2.388       .  S
Zr859       O869   2.412       .  S
Zr859       O870   2.416       .  S
O860        H916   0.990       .  S
O860        H924   0.991       .  S
O861        C881   1.287       .  A
O862        C883   1.289       .  A
O863       Zr873   2.435       .  S
O863        C882   1.284       .  A
O864       Zr872   2.410       .  S
O864        C883   1.278       .  A
O865        C882   1.282       .  A
O866       Zr874   2.397       .  S
O866        C881   1.274       .  A
O867       Zr872   2.403       .  S
O867       Zr874   2.391       .  S
O868       Zr873   2.394       .  S
O868       Zr874   2.370       .  S
O868        H903   0.966       .  S
O869       Zr872   2.396       .  S
O869       Zr889   2.374       .  S
O869        H906   0.963       .  S
O870       Zr873   2.390       .  S
O870       Zr889   2.392       .  S
Zr871       O896   2.442       .  S
Zr871       O890   2.461       .  S
Zr871       O898   2.441       .  S
Zr871       O886   2.458       .  S
Zr871       O877   2.409       .  S
Zr871       O878   2.414       .  S
Zr871       O879   2.375       .  S
Zr871       O880   2.387       .  S
Zr872       O891   2.436       .  S
Zr872       O884   2.434       .  S
Zr872       O885   2.410       .  S
Zr872       O878   2.400       .  S
Zr872       O879   2.391       .  S
Zr873       O875   2.434       .  S
Zr873       O897   2.438       .  S
Zr873       O899   2.433       .  S
Zr873       O877   2.392       .  S
Zr873       O880   2.394       .  S
Zr874       O900   2.435       .  S
Zr874       O901   2.436       .  S
Zr874       O876   2.438       .  S
Zr874       O877   2.392       .  S
Zr874       O878   2.372       .  S
O875        H912   0.990       .  S
O876        H907   0.991       .  S
O876        H921   0.990       .  S
O878        H904   0.963       .  S
O879       Zr889   2.388       .  S
O880       Zr889   2.378       .  S
O880        H905   0.965       .  S
C881       C4511   1.437       .  S
C882       C4506   1.433       .  S
C883       C4592   1.434       .  S
O884        H920   0.990       .  S
O885        C887   1.279       .  A
O886        C887   1.287       .  A
C887       C4508   1.427       .  S
O888       Zr889   2.441       .  S
O888        H917   0.990       .  S
Zr889       O892   2.439       .  S
Zr889       O893   2.444       .  S
Zr889       O894   2.396       .  S
O890        C895   1.287       .  A
O891        H908   0.990       .  S
O891        H923   0.990       .  S
O892        H909   0.990       .  S
O893        H913   0.990       .  S
O893        H922   0.990       .  S
O894        C895   1.275       .  A
C895       C4514   1.436       .  S
O896        H915   0.991       .  S
O896        H919   0.990       .  S
O897        H911   0.990       .  S
O897        H918   0.990       .  S
O898        C902   1.284       .  A
O899        C902   1.284       .  A
O900        H910   0.990       .  S
O901        H914   0.990       .  S
C902       C4542   1.441       .  S
Zr925       O926   2.443       .  S
Zr925       O927   2.458       .  S
Zr925       O928   2.474       .  S
Zr925       O931   2.428       .  S
Zr925       O933   2.381       .  S
Zr925       O934   2.390       .  S
Zr925       O935   2.410       .  S
Zr925       O936   2.414       .  S
O926        H982   0.990       .  S
O926        H990   0.991       .  S
O927        C947   1.286       .  A
O928        C949   1.289       .  A
O929       Zr939   2.436       .  S
O929        C948   1.284       .  A
O930       Zr938   2.410       .  S
O930        C949   1.278       .  A
O931        C948   1.282       .  A
O932       Zr940   2.401       .  S
O932        C947   1.275       .  A
O933       Zr938   2.402       .  S
O933       Zr940   2.391       .  S
O934       Zr939   2.395       .  S
O934       Zr940   2.370       .  S
O934        H969   0.966       .  S
O935       Zr938   2.399       .  S
O935       Zr955   2.372       .  S
O935        H972   0.963       .  S
O936       Zr939   2.390       .  S
O936       Zr955   2.388       .  S
Zr937       O962   2.442       .  S
Zr937       O956   2.459       .  S
Zr937       O964   2.440       .  S
Zr937       O952   2.459       .  S
Zr937       O943   2.411       .  S
Zr937       O944   2.413       .  S
Zr937       O945   2.376       .  S
Zr937       O946   2.387       .  S
Zr938       O957   2.437       .  S
Zr938       O950   2.435       .  S
Zr938       O951   2.409       .  S
Zr938       O944   2.399       .  S
Zr938       O945   2.394       .  S
Zr939       O941   2.434       .  S
Zr939       O963   2.439       .  S
Zr939       O965   2.433       .  S
Zr939       O943   2.392       .  S
Zr939       O946   2.396       .  S
Zr940       O966   2.435       .  S
Zr940       O967   2.435       .  S
Zr940       O942   2.438       .  S
Zr940       O943   2.392       .  S
Zr940       O944   2.373       .  S
O941        H978   0.990       .  S
O942        H973   0.991       .  S
O942        H987   0.990       .  S
O944        H970   0.964       .  S
O945       Zr955   2.388       .  S
O946       Zr955   2.377       .  S
O946        H971   0.966       .  S
C947       C4503   1.437       .  S
C948       C4499   1.433       .  S
C949       C4582   1.435       .  S
O950        H986   0.990       .  S
O951        C953   1.278       .  A
O952        C953   1.286       .  A
C953       C4507   1.427       .  S
O954       Zr955   2.441       .  S
O954        H983   0.990       .  S
Zr955       O958   2.436       .  S
Zr955       O959   2.440       .  S
Zr955       O960   2.399       .  S
O956        C961   1.287       .  A
O957        H974   0.990       .  S
O957        H989   0.990       .  S
O958        H975   0.990       .  S
O959        H979   0.990       .  S
O959        H988   0.989       .  S
O960        C961   1.275       .  A
C961       C4501   1.437       .  S
O962        H981   0.991       .  S
O962        H985   0.990       .  S
O963        H977   0.990       .  S
O963        H984   0.990       .  S
O964        C968   1.284       .  A
O965        C968   1.283       .  A
O966        H976   0.990       .  S
O967        H980   0.990       .  S
C968       C4519   1.440       .  S
Zr991       O992   2.443       .  S
Zr991       O993   2.461       .  S
Zr991       O994   2.475       .  S
Zr991       O997   2.423       .  S
Zr991       O999   2.375       .  S
Zr991      O1000   2.389       .  S
Zr991      O1001   2.407       .  S
Zr991      O1002   2.415       .  S
O992       H1048   0.990       .  S
O992       H1056   0.991       .  S
O993       C1013   1.287       .  A
O994       C1015   1.290       .  A
O995      Zr1005   2.431       .  S
O995       C1014   1.284       .  A
O996      Zr1004   2.409       .  S
O996       C1015   1.278       .  A
O997       C1014   1.281       .  A
O998      Zr1006   2.397       .  S
O998       C1013   1.274       .  A
O999      Zr1004   2.400       .  S
O999      Zr1006   2.390       .  S
O1000     Zr1005   2.395       .  S
O1000     Zr1006   2.370       .  S
O1000      H1035   0.965       .  S
O1001     Zr1004   2.397       .  S
O1001     Zr1021   2.371   1_556  S
O1001      H1038   0.963       .  S
O1002     Zr1005   2.388       .  S
O1002     Zr1021   2.388   1_556  S
Zr1003     O1028   2.441       .  S
Zr1003     O1022   2.460       .  S
Zr1003     O1030   2.439       .  S
Zr1003     O1018   2.461       .  S
Zr1003     O1009   2.409   1_554  S
Zr1003     O1010   2.411   1_554  S
Zr1003     O1011   2.374       .  S
Zr1003     O1012   2.389       .  S
Zr1004     O1023   2.435   1_556  S
Zr1004     O1016   2.435       .  S
Zr1004     O1017   2.406   1_556  S
Zr1004     O1010   2.401       .  S
Zr1004     O1011   2.392   1_556  S
Zr1005     O1007   2.435   1_556  S
Zr1005     O1029   2.438       .  S
Zr1005     O1031   2.429   1_556  S
Zr1005     O1009   2.392       .  S
Zr1005     O1012   2.394   1_556  S
Zr1006     O1032   2.436       .  S
Zr1006     O1033   2.435       .  S
Zr1006     O1008   2.438       .  S
Zr1006     O1009   2.392       .  S
Zr1006     O1010   2.373       .  S
O1007      H1044   0.990       .  S
O1008      H1039   0.990       .  S
O1008      H1053   0.990       .  S
O1010      H1036   0.963       .  S
O1011     Zr1021   2.387       .  S
O1012     Zr1021   2.378       .  S
O1012      H1037   0.966       .  S
C1013      C4502   1.437       .  S
C1014      C4497   1.429       .  S
C1015      C4576   1.436       .  S
O1016      H1052   0.990       .  S
O1017      C1019   1.278       .  A
O1018      C1019   1.287       .  A
C1019      C4515   1.427       .  S
O1020     Zr1021   2.440       .  S
O1020      H1049   0.990       .  S
Zr1021     O1024   2.439       .  S
Zr1021     O1025   2.441       .  S
Zr1021     O1026   2.399       .  S
O1022      C1027   1.287       .  A
O1023      H1040   0.990       .  S
O1023      H1055   0.990       .  S
O1024      H1041   0.990       .  S
O1025      H1045   0.990       .  S
O1025      H1054   0.990       .  S
O1026      C1027   1.275       .  A
C1027      C4504   1.437       .  S
O1028      H1047   0.991       .  S
O1028      H1051   0.990       .  S
O1029      H1043   0.990       .  S
O1029      H1050   0.990       .  S
O1030      C1034   1.284       .  A
O1031      C1034   1.283       .  A
O1032      H1042   0.990       .  S
O1033      H1046   0.990       .  S
C1034      C4528   1.437       .  S
Zr1057     O1058   2.443       .  S
Zr1057     O1059   2.457       .  S
Zr1057     O1060   2.449       .  S
Zr1057     O1063   2.442       .  S
Zr1057     O1065   2.381       .  S
Zr1057     O1066   2.385       .  S
Zr1057     O1067   2.416       .  S
Zr1057     O1068   2.401       .  S
O1058      H1114   0.990       .  S
O1058      H1122   0.991       .  S
O1059      C1079   1.286       .  A
O1060      C1081   1.284       .  A
O1061     Zr1071   2.424       .  S
O1061      C1080   1.282       .  A
O1062     Zr1070   2.429       .  S
O1062      C1081   1.282       .  A
O1063      C1080   1.284       .  A
O1064     Zr1072   2.408       .  S
O1064      C1079   1.277       .  A
O1065     Zr1070   2.401       .  S
O1065     Zr1072   2.379       .  S
O1066     Zr1071   2.397       .  S
O1066     Zr1072   2.388       .  S
O1066      H1101   0.965       .  S
O1067     Zr1070   2.403       .  S
O1067     Zr1087   2.395       .  S
O1067      H1104   0.965       .  S
O1068     Zr1071   2.383       .  S
O1068     Zr1087   2.384       .  S
Zr1069     O1094   2.442       .  S
Zr1069     O1088   2.454       .  S
Zr1069     O1096   2.462       .  S
Zr1069     O1084   2.427       .  S
Zr1069     O1075   2.389       .  S
Zr1069     O1076   2.419       .  S
Zr1069     O1077   2.382       .  S
Zr1069     O1078   2.381       .  S
Zr1070     O1089   2.438       .  S
Zr1070     O1082   2.436       .  S
Zr1070     O1083   2.435       .  S
Zr1070     O1076   2.402       .  S
Zr1070     O1077   2.392       .  S
Zr1071     O1073   2.437       .  S
Zr1071     O1095   2.439       .  S
Zr1071     O1097   2.422       .  S
Zr1071     O1075   2.384       .  S
Zr1071     O1078   2.395       .  S
Zr1072     O1098   2.434       .  S
Zr1072     O1099   2.436       .  S
Zr1072     O1074   2.438       .  S
Zr1072     O1075   2.383       .  S
Zr1072     O1076   2.393       .  S
O1073      H1110   0.990       .  S
O1074      H1105   0.990       .  S
O1074      H1119   0.990       .  S
O1076      H1102   0.965       .  S
O1077     Zr1087   2.375       .  S
O1078     Zr1087   2.391       .  S
O1078      H1103   0.965       .  S
C1079      C4490   1.438       .  S
C1080      C4495   1.432       .  S
C1081      C4493   1.438       .  S
O1082      H1118   0.990       .  S
O1083      C1085   1.284       .  A
O1084      C1085   1.280       .  A
C1085      C4485   1.431       .  S
O1086     Zr1087   2.441       .  S
O1086      H1115   0.990       .  S
Zr1087     O1090   2.439       .  S
Zr1087     O1091   2.441       .  S
Zr1087     O1092   2.407       .  S
O1088      C1093   1.286       .  A
O1089      H1106   0.990       .  S
O1089      H1121   0.990       .  S
O1090      H1107   0.990       .  S
O1091      H1111   0.990       .  S
O1091      H1120   0.990       .  S
O1092      C1093   1.277       .  A
C1093      C4491   1.438       .  S
O1094      H1113   0.990       .  S
O1094      H1117   0.991       .  S
O1095      H1109   0.990       .  S
O1095      H1116   0.990       .  S
O1096      C1100   1.288       .  A
O1097      C1100   1.281       .  A
O1098      H1108   0.990       .  S
O1099      H1112   0.990       .  S
C1100      C4487   1.440       .  S
Zr1123     O1124   2.444       .  S
Zr1123     O1125   2.456   1_556  S
Zr1123     O1126   2.454       .  S
Zr1123     O1129   2.446       .  S
Zr1123     O1131   2.385       .  S
Zr1123     O1132   2.386       .  S
Zr1123     O1133   2.416       .  S
Zr1123     O1134   2.402       .  S
O1124      H1180   0.990       .  S
O1124      H1188   0.991       .  S
O1125      C1145   1.285       .  A
O1126      C1147   1.285       .  A
O1127     Zr1137   2.414       .  S
O1127      C1146   1.279       .  A
O1128     Zr1136   2.429       .  S
O1128      C1147   1.282       .  A
O1129      C1146   1.285       .  A
O1130     Zr1138   2.409   1_554  S
O1130      C1145   1.277       .  A
O1131     Zr1136   2.401       .  S
O1131     Zr1138   2.380       .  S
O1132     Zr1137   2.396       .  S
O1132     Zr1138   2.385       .  S
O1132      H1167   0.966       .  S
O1133     Zr1136   2.403       .  S
O1133     Zr1153   2.394       .  S
O1133      H1170   0.965       .  S
O1134     Zr1137   2.387       .  S
O1134     Zr1153   2.387       .  S
Zr1135     O1160   2.441       .  S
Zr1135     O1154   2.452       .  S
Zr1135     O1162   2.459       .  S
Zr1135     O1150   2.427       .  S
Zr1135     O1141   2.391       .  S
Zr1135     O1142   2.418       .  S
Zr1135     O1143   2.381       .  S
Zr1135     O1144   2.380       .  S
Zr1136     O1155   2.437       .  S
Zr1136     O1148   2.435       .  S
Zr1136     O1149   2.434       .  S
Zr1136     O1142   2.400       .  S
Zr1136     O1143   2.392       .  S
Zr1137     O1139   2.436       .  S
Zr1137     O1161   2.439       .  S
Zr1137     O1163   2.422       .  S
Zr1137     O1141   2.379       .  S
Zr1137     O1144   2.394       .  S
Zr1138     O1164   2.434       .  S
Zr1138     O1165   2.435       .  S
Zr1138     O1140   2.436       .  S
Zr1138     O1141   2.381       .  S
Zr1138     O1142   2.394       .  S
O1139      H1176   0.990       .  S
O1140      H1171   0.990       .  S
O1140      H1185   0.990       .  S
O1142      H1168   0.965       .  S
O1143     Zr1153   2.377       .  S
O1144     Zr1153   2.391       .  S
O1144      H1169   0.966       .  S
C1145      C4492   1.438       .  S
C1146      C4483   1.429       .  S
C1147      C4481   1.440       .  S
O1148      H1184   0.990       .  S
O1149      C1151   1.283       .  A
O1150      C1151   1.280       .  A
C1151      C4478   1.431       .  S
O1152     Zr1153   2.440       .  S
O1152      H1181   0.990       .  S
Zr1153     O1156   2.437       .  S
Zr1153     O1157   2.441       .  S
Zr1153     O1158   2.409       .  S
O1154      C1159   1.285       .  A
O1155      H1172   0.990       .  S
O1155      H1187   0.990       .  S
O1156      H1173   0.990       .  S
O1157      H1177   0.990       .  S
O1157      H1186   0.990       .  S
O1158      C1159   1.277       .  A
C1159      C4489   1.438       .  S
O1160      H1179   0.991       .  S
O1160      H1183   0.990       .  S
O1161      H1175   0.990       .  S
O1161      H1182   0.990       .  S
O1162      C1166   1.288       .  A
O1163      C1166   1.281       .  A
O1164      H1174   0.990       .  S
O1165      H1178   0.990       .  S
C1166      C4479   1.439       .  S
Zr1189     O1190   2.441       .  S
Zr1189     O1191   2.451       .  S
Zr1189     O1192   2.456       .  S
Zr1189     O1195   2.445       .  S
Zr1189     O1197   2.384       .  S
Zr1189     O1198   2.384       .  S
Zr1189     O1199   2.414   1_556  S
Zr1189     O1200   2.400   1_556  S
O1190      H1246   0.990       .  S
O1190      H1254   0.991       .  S
O1191      C1211   1.285       .  A
O1192      C1213   1.285       .  A
O1193     Zr1203   2.413   1_556  S
O1193      C1212   1.280       .  A
O1194     Zr1202   2.434   1_556  S
O1194      C1213   1.283       .  A
O1195      C1212   1.285       .  A
O1196     Zr1204   2.411       .  S
O1196      C1211   1.278       .  A
O1197     Zr1202   2.402   1_556  S
O1197     Zr1204   2.384       .  S
O1198     Zr1203   2.395   1_556  S
O1198     Zr1204   2.383       .  S
O1198      H1233   0.965       .  S
O1199     Zr1202   2.404       .  S
O1199     Zr1219   2.393       .  S
O1199      H1236   0.965       .  S
O1200     Zr1203   2.384       .  S
O1200     Zr1219   2.384       .  S
Zr1201     O1226   2.439       .  S
Zr1201     O1220   2.449       .  S
Zr1201     O1228   2.455       .  S
Zr1201     O1216   2.431       .  S
Zr1201     O1207   2.387       .  S
Zr1201     O1208   2.416       .  S
Zr1201     O1209   2.381       .  S
Zr1201     O1210   2.382       .  S
Zr1202     O1221   2.437       .  S
Zr1202     O1214   2.435   1_554  S
Zr1202     O1215   2.435       .  S
Zr1202     O1208   2.401       .  S
Zr1202     O1209   2.395       .  S
Zr1203     O1205   2.437       .  S
Zr1203     O1227   2.439   1_554  S
Zr1203     O1229   2.417       .  S
Zr1203     O1207   2.378       .  S
Zr1203     O1210   2.395       .  S
Zr1204     O1230   2.436       .  S
Zr1204     O1231   2.435       .  S
Zr1204     O1206   2.436       .  S
Zr1204     O1207   2.379   1_556  S
Zr1204     O1208   2.395   1_556  S
O1205      H1242   0.990       .  S
O1206      H1237   0.990       .  S
O1206      H1251   0.990       .  S
O1208      H1234   0.965       .  S
O1209     Zr1219   2.377       .  S
O1210     Zr1219   2.389       .  S
O1210      H1235   0.966       .  S
C1211      C4471   1.438       .  S
C1212      C4484   1.429       .  S
C1213      C4476   1.443       .  S
O1214      H1250   0.990       .  S
O1215      C1217   1.284       .  A
O1216      C1217   1.281       .  A
C1217      C4598   1.434       .  S
O1218     Zr1219   2.440       .  S
O1218      H1247   0.990       .  S
Zr1219     O1222   2.437       .  S
Zr1219     O1223   2.440       .  S
Zr1219     O1224   2.410       .  S
O1220      C1225   1.285       .  A
O1221      H1238   0.990       .  S
O1221      H1253   0.990       .  S
O1222      H1239   0.990       .  S
O1223      H1243   0.990       .  S
O1223      H1252   0.990       .  S
O1224      C1225   1.277       .  A
C1225      C4474   1.437       .  S
O1226      H1245   0.990       .  S
O1226      H1249   0.991       .  S
O1227      H1241   0.990       .  S
O1227      H1248   0.990       .  S
O1228      C1232   1.287       .  A
O1229      C1232   1.280       .  A
O1230      H1240   0.990       .  S
O1231      H1244   0.990       .  S
C1232      C4469   1.435       .  S
Zr1255     O1256   2.442       .  S
Zr1255     O1257   2.454       .  S
Zr1255     O1258   2.452       .  S
Zr1255     O1261   2.445       .  S
Zr1255     O1263   2.384       .  S
Zr1255     O1264   2.385       .  S
Zr1255     O1265   2.414       .  S
Zr1255     O1266   2.398       .  S
O1256      H1312   0.990       .  S
O1256      H1320   0.991       .  S
O1257      C1277   1.285       .  A
O1258      C1279   1.285       .  A
O1259     Zr1269   2.419       .  S
O1259      C1278   1.281       .  A
O1260     Zr1268   2.435       .  S
O1260      C1279   1.283       .  A
O1261      C1278   1.285       .  A
O1262     Zr1270   2.411       .  S
O1262      C1277   1.277       .  A
O1263     Zr1268   2.402       .  S
O1263     Zr1270   2.380       .  S
O1264     Zr1269   2.395       .  S
O1264     Zr1270   2.384       .  S
O1264      H1299   0.966       .  S
O1265     Zr1268   2.403       .  S
O1265     Zr1285   2.391       .  S
O1265      H1302   0.965       .  S
O1266     Zr1269   2.385       .  S
O1266     Zr1285   2.382       .  S
Zr1267     O1292   2.443       .  S
Zr1267     O1286   2.450       .  S
Zr1267     O1294   2.452       .  S
Zr1267     O1282   2.430       .  S
Zr1267     O1273   2.392       .  S
Zr1267     O1274   2.418       .  S
Zr1267     O1275   2.379       .  S
Zr1267     O1276   2.383       .  S
Zr1268     O1287   2.438       .  S
Zr1268     O1280   2.436       .  S
Zr1268     O1281   2.436       .  S
Zr1268     O1274   2.401       .  S
Zr1268     O1275   2.393       .  S
Zr1269     O1271   2.437       .  S
Zr1269     O1293   2.439       .  S
Zr1269     O1295   2.421       .  S
Zr1269     O1273   2.383       .  S
Zr1269     O1276   2.398       .  S
Zr1270     O1296   2.436       .  S
Zr1270     O1297   2.434       .  S
Zr1270     O1272   2.437       .  S
Zr1270     O1273   2.385       .  S
Zr1270     O1274   2.395       .  S
O1271      H1308   0.990       .  S
O1272      H1303   0.990       .  S
O1272      H1317   0.990       .  S
O1274      H1300   0.965       .  S
O1275     Zr1285   2.375       .  S
O1276     Zr1285   2.391       .  S
O1276      H1301   0.966       .  S
C1277      C4473   1.438       .  S
C1278      C4496   1.431       .  S
C1279      C4467   1.442       .  S
O1280      H1316   0.990       .  S
O1281      C1283   1.284       .  A
O1282      C1283   1.281       .  A
C1283      C4590   1.433       .  S
O1284     Zr1285   2.438       .  S
O1284      H1313   0.990       .  S
Zr1285     O1288   2.437       .  S
Zr1285     O1289   2.438       .  S
Zr1285     O1290   2.409       .  S
O1286      C1291   1.284       .  A
O1287      H1304   0.990       .  S
O1287      H1319   0.990       .  S
O1288      H1305   0.990       .  S
O1289      H1309   0.990       .  S
O1289      H1318   0.990       .  S
O1290      C1291   1.277       .  A
C1291      C4472   1.437       .  S
O1292      H1311   0.990       .  S
O1292      H1315   0.991       .  S
O1293      H1307   0.990       .  S
O1293      H1314   0.990       .  S
O1294      C1298   1.286       .  A
O1295      C1298   1.280       .  A
O1296      H1306   0.990       .  S
O1297      H1310   0.990       .  S
C1298      C4465   1.435       .  S
Zr1321     O1322   2.442       .  S
Zr1321     O1323   2.452       .  S
Zr1321     O1324   2.453       .  S
Zr1321     O1327   2.443       .  S
Zr1321     O1329   2.384       .  S
Zr1321     O1330   2.386       .  S
Zr1321     O1331   2.417   1_556  S
Zr1321     O1332   2.399   1_556  S
O1322      H1378   0.990       .  S
O1322      H1386   0.991       .  S
O1323      C1343   1.285       .  A
O1324      C1345   1.285       .  A
O1325     Zr1335   2.416   1_556  S
O1325      C1344   1.280       .  A
O1326     Zr1334   2.429   1_556  S
O1326      C1345   1.281       .  A
O1327      C1344   1.285       .  A
O1328     Zr1336   2.416       .  S
O1328      C1343   1.278       .  A
O1329     Zr1334   2.398   1_556  S
O1329     Zr1336   2.380       .  S
O1330     Zr1335   2.394   1_556  S
O1330     Zr1336   2.385       .  S
O1330      H1365   0.966       .  S
O1331     Zr1334   2.408       .  S
O1331     Zr1351   2.394       .  S
O1331      H1368   0.965       .  S
O1332     Zr1335   2.386       .  S
O1332     Zr1351   2.382       .  S
Zr1333     O1358   2.443       .  S
Zr1333     O1352   2.452       .  S
Zr1333     O1360   2.455       .  S
Zr1333     O1348   2.431       .  S
Zr1333     O1339   2.391       .  S
Zr1333     O1340   2.419       .  S
Zr1333     O1341   2.381       .  S
Zr1333     O1342   2.384       .  S
Zr1334     O1353   2.436       .  S
Zr1334     O1346   2.436   1_554  S
Zr1334     O1347   2.435       .  S
Zr1334     O1340   2.398       .  S
Zr1334     O1341   2.395       .  S
Zr1335     O1337   2.437       .  S
Zr1335     O1359   2.440   1_554  S
Zr1335     O1361   2.416       .  S
Zr1335     O1339   2.381       .  S
Zr1335     O1342   2.396       .  S
Zr1336     O1362   2.436       .  S
Zr1336     O1363   2.435       .  S
Zr1336     O1338   2.437       .  S
Zr1336     O1339   2.383   1_556  S
Zr1336     O1340   2.395   1_556  S
O1337      H1374   0.990       .  S
O1338      H1369   0.990       .  S
O1338      H1383   0.990       .  S
O1340      H1366   0.966       .  S
O1341     Zr1351   2.378       .  S
O1342     Zr1351   2.389       .  S
O1342      H1367   0.966       .  S
C1343      C4459   1.438       .  S
C1344      C4463   1.429       .  S
C1345      C4482   1.439       .  S
O1346      H1382   0.990       .  S
O1347      C1349   1.283       .  A
O1348      C1349   1.281       .  A
C1349      C4455   1.434       .  S
O1350     Zr1351   2.439       .  S
O1350      H1379   0.990       .  S
Zr1351     O1354   2.437       .  S
Zr1351     O1355   2.440       .  S
Zr1351     O1356   2.403       .  S
O1352      C1357   1.285       .  A
O1353      H1370   0.990       .  S
O1353      H1385   0.990       .  S
O1354      H1371   0.990       .  S
O1355      H1375   0.990       .  S
O1355      H1384   0.990       .  S
O1356      C1357   1.276       .  A
C1357      C4461   1.435       .  S
O1358      H1377   0.990       .  S
O1358      H1381   0.991       .  S
O1359      H1373   0.990       .  S
O1359      H1380   0.990       .  S
O1360      C1364   1.287       .  A
O1361      C1364   1.280       .  A
O1362      H1372   0.990       .  S
O1363      H1376   0.990       .  S
C1364      C4457   1.436       .  S
Zr1387     O1388   2.443       .  S
Zr1387     O1389   2.451       .  S
Zr1387     O1390   2.452       .  S
Zr1387     O1393   2.448       .  S
Zr1387     O1395   2.387       .  S
Zr1387     O1396   2.384       .  S
Zr1387     O1397   2.414       .  S
Zr1387     O1398   2.398       .  S
O1388      H1444   0.990       .  S
O1388      H1452   0.991       .  S
O1389      C1409   1.284       .  A
O1390      C1411   1.285       .  A
O1391     Zr1401   2.415       .  S
O1391      C1410   1.280       .  A
O1392     Zr1400   2.431       .  S
O1392      C1411   1.282       .  A
O1393      C1410   1.285       .  A
O1394     Zr1402   2.411       .  S
O1394      C1409   1.277       .  A
O1395     Zr1400   2.401       .  S
O1395     Zr1402   2.379       .  S
O1396     Zr1401   2.394       .  S
O1396     Zr1402   2.384       .  S
O1396      H1431   0.966       .  S
O1397     Zr1400   2.402       .  S
O1397     Zr1417   2.387       .  S
O1397      H1434   0.965       .  S
O1398     Zr1401   2.386       .  S
O1398     Zr1417   2.385       .  S
Zr1399     O1424   2.442       .  S
Zr1399     O1418   2.456       .  S
Zr1399     O1426   2.455       .  S
Zr1399     O1414   2.425       .  S
Zr1399     O1405   2.392       .  S
Zr1399     O1406   2.420       .  S
Zr1399     O1407   2.380       .  S
Zr1399     O1408   2.379       .  S
Zr1400     O1419   2.437       .  S
Zr1400     O1412   2.435       .  S
Zr1400     O1413   2.430       .  S
Zr1400     O1406   2.400       .  S
Zr1400     O1407   2.394       .  S
Zr1401     O1403   2.435       .  S
Zr1401     O1425   2.440       .  S
Zr1401     O1427   2.420       .  S
Zr1401     O1405   2.380       .  S
Zr1401     O1408   2.395       .  S
Zr1402     O1428   2.435       .  S
Zr1402     O1429   2.434       .  S
Zr1402     O1404   2.439       .  S
Zr1402     O1405   2.387       .  S
Zr1402     O1406   2.397       .  S
O1403      H1440   0.990       .  S
O1404      H1435   0.990       .  S
O1404      H1449   0.990       .  S
O1406      H1432   0.965       .  S
O1407     Zr1417   2.378       .  S
O1408     Zr1417   2.392       .  S
O1408      H1433   0.966       .  S
C1409      C4462   1.435       .  S
C1410      C4453   1.432       .  S
C1411      C4494   1.438       .  S
O1412      H1448   0.990       .  S
O1413      C1415   1.283       .  A
O1414      C1415   1.279       .  A
C1415      C4449   1.429       .  S
O1416     Zr1417   2.440       .  S
O1416      H1445   0.990       .  S
Zr1417     O1420   2.437       .  S
Zr1417     O1421   2.439       .  S
Zr1417     O1422   2.407       .  S
O1418      C1423   1.286       .  A
O1419      H1436   0.990       .  S
O1419      H1451   0.990       .  S
O1420      H1437   0.990       .  S
O1421      H1441   0.990       .  S
O1421      H1450   0.990       .  S
O1422      C1423   1.277       .  A
C1423      C4460   1.438       .  S
O1424      H1443   0.990       .  S
O1424      H1447   0.991       .  S
O1425      H1439   0.990       .  S
O1425      H1446   0.990       .  S
O1426      C1430   1.287       .  A
O1427      C1430   1.281       .  A
O1428      H1438   0.990       .  S
O1429      H1442   0.990       .  S
C1430      C4452   1.437       .  S
Zr1453     O1454   2.442       .  S
Zr1453     O1455   2.455       .  S
Zr1453     O1456   2.455       .  S
Zr1453     O1459   2.446       .  S
Zr1453     O1461   2.384       .  S
Zr1453     O1462   2.385       .  S
Zr1453     O1463   2.417       .  S
Zr1453     O1464   2.401       .  S
O1454      H1510   0.990       .  S
O1454      H1518   0.991       .  S
O1455      C1475   1.285       .  A
O1456      C1477   1.286       .  A
O1457     Zr1467   2.420       .  S
O1457      C1476   1.281       .  A
O1458     Zr1466   2.433       .  S
O1458      C1477   1.282       .  A
O1459      C1476   1.285       .  A
O1460     Zr1468   2.407       .  S
O1460      C1475   1.276       .  A
O1461     Zr1466   2.399       .  S
O1461     Zr1468   2.382       .  S
O1462     Zr1467   2.395       .  S
O1462     Zr1468   2.386       .  S
O1462      H1497   0.965       .  S
O1463     Zr1466   2.406       .  S
O1463     Zr1483   2.396       .  S
O1463      H1500   0.964       .  S
O1464     Zr1467   2.385       .  S
O1464     Zr1483   2.386       .  S
Zr1465     O1490   2.442       .  S
Zr1465     O1484   2.449       .  S
Zr1465     O1492   2.453       .  S
Zr1465     O1480   2.427       .  S
Zr1465     O1471   2.386       .  S
Zr1465     O1472   2.416       .  S
Zr1465     O1473   2.381       .  S
Zr1465     O1474   2.384       .  S
Zr1466     O1485   2.436       .  S
Zr1466     O1478   2.435       .  S
Zr1466     O1479   2.433       .  S
Zr1466     O1472   2.401       .  S
Zr1466     O1473   2.394       .  S
Zr1467     O1469   2.436       .  S
Zr1467     O1491   2.439       .  S
Zr1467     O1493   2.420       .  S
Zr1467     O1471   2.380       .  S
Zr1467     O1474   2.396       .  S
Zr1468     O1494   2.437       .  S
Zr1468     O1495   2.435       .  S
Zr1468     O1470   2.439       .  S
Zr1468     O1471   2.376       .  S
Zr1468     O1472   2.398       .  S
O1469      H1506   0.990       .  S
O1470      H1501   0.990       .  S
O1470      H1515   0.990       .  S
O1472      H1498   0.965       .  S
O1473     Zr1483   2.376       .  S
O1474     Zr1483   2.389       .  S
O1474      H1499   0.966       .  S
C1475      C4445   1.436       .  S
C1476      C4454   1.432       .  S
C1477      C4468   1.443       .  S
O1478      H1514   0.990       .  S
O1479      C1481   1.283       .  A
O1480      C1481   1.280       .  A
C1481      C4509   1.432       .  S
O1482     Zr1483   2.439       .  S
O1482      H1511   0.990       .  S
Zr1483     O1486   2.438       .  S
Zr1483     O1487   2.441       .  S
Zr1483     O1488   2.411       .  S
O1484      C1489   1.285       .  A
O1485      H1502   0.990       .  S
O1485      H1517   0.990       .  S
O1486      H1503   0.990       .  S
O1487      H1507   0.990       .  S
O1487      H1516   0.990       .  S
O1488      C1489   1.277       .  A
C1489      C4448   1.438       .  S
O1490      H1509   0.991       .  S
O1490      H1513   0.991       .  S
O1491      H1505   0.990       .  S
O1491      H1512   0.990       .  S
O1492      C1496   1.287       .  A
O1493      C1496   1.281       .  A
O1494      H1504   0.990       .  S
O1495      H1508   0.990       .  S
C1496      C4444   1.435       .  S
Zr1519     O1520   2.446       .  S
Zr1519     O1521   2.455   1_556  S
Zr1519     O1522   2.454       .  S
Zr1519     O1525   2.439       .  S
Zr1519     O1527   2.382       .  S
Zr1519     O1528   2.387       .  S
Zr1519     O1529   2.415       .  S
Zr1519     O1530   2.402       .  S
O1520      H1576   0.990       .  S
O1520      H1584   0.991       .  S
O1521      C1541   1.285       .  A
O1522      C1543   1.285       .  A
O1523     Zr1533   2.423       .  S
O1523      C1542   1.281       .  A
O1524     Zr1532   2.433       .  S
O1524      C1543   1.283       .  A
O1525      C1542   1.284       .  A
O1526     Zr1534   2.410   1_554  S
O1526      C1541   1.277       .  A
O1527     Zr1532   2.401       .  S
O1527     Zr1534   2.380       .  S
O1528     Zr1533   2.395       .  S
O1528     Zr1534   2.386       .  S
O1528      H1563   0.966       .  S
O1529     Zr1532   2.405       .  S
O1529     Zr1549   2.393       .  S
O1529      H1566   0.965       .  S
O1530     Zr1533   2.381       .  S
O1530     Zr1549   2.385       .  S
Zr1531     O1556   2.442       .  S
Zr1531     O1550   2.447       .  S
Zr1531     O1558   2.455       .  S
Zr1531     O1546   2.432       .  S
Zr1531     O1537   2.390       .  S
Zr1531     O1538   2.416       .  S
Zr1531     O1539   2.379       .  S
Zr1531     O1540   2.385       .  S
Zr1532     O1551   2.437       .  S
Zr1532     O1544   2.435       .  S
Zr1532     O1545   2.434       .  S
Zr1532     O1538   2.404       .  S
Zr1532     O1539   2.393       .  S
Zr1533     O1535   2.436       .  S
Zr1533     O1557   2.438       .  S
Zr1533     O1559   2.419       .  S
Zr1533     O1537   2.382       .  S
Zr1533     O1540   2.396       .  S
Zr1534     O1560   2.436       .  S
Zr1534     O1561   2.433       .  S
Zr1534     O1536   2.439       .  S
Zr1534     O1537   2.382       .  S
Zr1534     O1538   2.396       .  S
O1535      H1572   0.990       .  S
O1536      H1567   0.990       .  S
O1536      H1581   0.990       .  S
O1538      H1564   0.966       .  S
O1539     Zr1549   2.374       .  S
O1540     Zr1549   2.390       .  S
O1540      H1565   0.966       .  S
C1541      C4447   1.439       .  S
C1542      C4464   1.429       .  S
C1543      C4475   1.443       .  S
O1544      H1580   0.990       .  S
O1545      C1547   1.283       .  A
O1546      C1547   1.281       .  A
C1547      C4505   1.433       .  S
O1548     Zr1549   2.439       .  S
O1548      H1577   0.990       .  S
Zr1549     O1552   2.437       .  S
Zr1549     O1553   2.440       .  S
Zr1549     O1554   2.408       .  S
O1550      C1555   1.284       .  A
O1551      H1568   0.990       .  S
O1551      H1583   0.990       .  S
O1552      H1569   0.990       .  S
O1553      H1573   0.990       .  S
O1553      H1582   0.990       .  S
O1554      C1555   1.277       .  A
C1555      C4446   1.436       .  S
O1556      H1575   0.990       .  S
O1556      H1579   0.991       .  S
O1557      H1571   0.990       .  S
O1557      H1578   0.990       .  S
O1558      C1562   1.287       .  A
O1559      C1562   1.281       .  A
O1560      H1570   0.990       .  S
O1561      H1574   0.990       .  S
C1562      C4441   1.435       .  S
Zr1585     O1586   2.442       .  S
Zr1585     O1587   2.449       .  S
Zr1585     O1588   2.451       .  S
Zr1585     O1591   2.440       .  S
Zr1585     O1593   2.380       .  S
Zr1585     O1594   2.385       .  S
Zr1585     O1595   2.413       .  S
Zr1585     O1596   2.401       .  S
O1586      H1642   0.990       .  S
O1586      H1650   0.991       .  S
O1587      C1607   1.284       .  A
O1588      C1609   1.285       .  A
O1589     Zr1599   2.418       .  S
O1589      C1608   1.280       .  A
O1590     Zr1598   2.433       .  S
O1590      C1609   1.283       .  A
O1591      C1608   1.284       .  A
O1592     Zr1600   2.411       .  S
O1592      C1607   1.278       .  A
O1593     Zr1598   2.399       .  S
O1593     Zr1600   2.380       .  S
O1594     Zr1599   2.395       .  S
O1594     Zr1600   2.383       .  S
O1594      H1629   0.966       .  S
O1595     Zr1598   2.405       .  S
O1595     Zr1615   2.395       .  S
O1595      H1632   0.965       .  S
O1596     Zr1599   2.387       .  S
O1596     Zr1615   2.387       .  S
Zr1597     O1622   2.442       .  S
Zr1597     O1616   2.449       .  S
Zr1597     O1624   2.459       .  S
Zr1597     O1612   2.429       .  S
Zr1597     O1603   2.390       .  S
Zr1597     O1604   2.418       .  S
Zr1597     O1605   2.380       .  S
Zr1597     O1606   2.383       .  S
Zr1598     O1617   2.437       .  S
Zr1598     O1610   2.435       .  S
Zr1598     O1611   2.434       .  S
Zr1598     O1604   2.405       .  S
Zr1598     O1605   2.393       .  S
Zr1599     O1601   2.435       .  S
Zr1599     O1623   2.440       .  S
Zr1599     O1625   2.423       .  S
Zr1599     O1603   2.382       .  S
Zr1599     O1606   2.397       .  S
Zr1600     O1626   2.435       .  S
Zr1600     O1627   2.437       .  S
Zr1600     O1602   2.438       .  S
Zr1600     O1603   2.384       .  S
Zr1600     O1604   2.397       .  S
O1601      H1638   0.990       .  S
O1602      H1633   0.990       .  S
O1602      H1647   0.990       .  S
O1604      H1630   0.965       .  S
O1605     Zr1615   2.375       .  S
O1606     Zr1615   2.391       .  S
O1606      H1631   0.966       .  S
C1607      C4436   1.436       .  S
C1608      C4439   1.430       .  S
C1609      C4437   1.440       .  S
O1610      H1646   0.990       .  S
O1611      C1613   1.284       .  A
O1612      C1613   1.280       .  A
C1613      C4432   1.432       .  S
O1614     Zr1615   2.439       .  S
O1614      H1643   0.990       .  S
Zr1615     O1618   2.439       .  S
Zr1615     O1619   2.440       .  S
Zr1615     O1620   2.415       .  S
O1616      C1621   1.284       .  A
O1617      H1634   0.990       .  S
O1617      H1649   0.990       .  S
O1618      H1635   0.990       .  S
O1619      H1639   0.990       .  S
O1619      H1648   0.990       .  S
O1620      C1621   1.278       .  A
C1621      C4434   1.439       .  S
O1622      H1641   0.990       .  S
O1622      H1645   0.991       .  S
O1623      H1637   0.990       .  S
O1623      H1644   0.990       .  S
O1624      C1628   1.287       .  A
O1625      C1628   1.281       .  A
O1626      H1636   0.990       .  S
O1627      H1640   0.990       .  S
C1628      C4488   1.440       .  S
Zr1651     O1652   2.442       .  S
Zr1651     O1653   2.453       .  S
Zr1651     O1654   2.458       .  S
Zr1651     O1657   2.450       .  S
Zr1651     O1659   2.383       .  S
Zr1651     O1660   2.385       .  S
Zr1651     O1661   2.414       .  S
Zr1651     O1662   2.402       .  S
O1652      H1708   0.990       .  S
O1652      H1716   0.991       .  S
O1653      C1673   1.285       .  A
O1654      C1675   1.286       .  A
O1655     Zr1665   2.419       .  S
O1655      C1674   1.281       .  A
O1656     Zr1664   2.431       .  S
O1656      C1675   1.282       .  A
O1657      C1674   1.286       .  A
O1658     Zr1666   2.415       .  S
O1658      C1673   1.278       .  A
O1659     Zr1664   2.403       .  S
O1659     Zr1666   2.382       .  S
O1660     Zr1665   2.397       .  S
O1660     Zr1666   2.382       .  S
O1660      H1695   0.966       .  S
O1661     Zr1664   2.403       .  S
O1661     Zr1681   2.394       .  S
O1661      H1698   0.965       .  S
O1662     Zr1665   2.388       .  S
O1662     Zr1681   2.386       .  S
Zr1663     O1688   2.443       .  S
Zr1663     O1682   2.447       .  S
Zr1663     O1690   2.456       .  S
Zr1663     O1678   2.430       .  S
Zr1663     O1669   2.390       .  S
Zr1663     O1670   2.419       .  S
Zr1663     O1671   2.380       .  S
Zr1663     O1672   2.384       .  S
Zr1664     O1683   2.437       .  S
Zr1664     O1676   2.436       .  S
Zr1664     O1677   2.433       .  S
Zr1664     O1670   2.402       .  S
Zr1664     O1671   2.393       .  S
Zr1665     O1667   2.436       .  S
Zr1665     O1689   2.442       .  S
Zr1665     O1691   2.426       .  S
Zr1665     O1669   2.380       .  S
Zr1665     O1672   2.399       .  S
Zr1666     O1692   2.435       .  S
Zr1666     O1693   2.436       .  S
Zr1666     O1668   2.437       .  S
Zr1666     O1669   2.383       .  S
Zr1666     O1670   2.399       .  S
O1667      H1704   0.990       .  S
O1668      H1699   0.990       .  S
O1668      H1713   0.990       .  S
O1670      H1696   0.965       .  S
O1671     Zr1681   2.378       .  S
O1672     Zr1681   2.391       .  S
O1672      H1697   0.966       .  S
C1673      C4433   1.439       .  S
C1674      C4429   1.433       .  S
C1675      C4428   1.443       .  S
O1676      H1712   0.990       .  S
O1677      C1679   1.283       .  A
O1678      C1679   1.280       .  A
C1679      C4426   1.432       .  S
O1680     Zr1681   2.440       .  S
O1680      H1709   0.990       .  S
Zr1681     O1684   2.438       .  S
Zr1681     O1685   2.440       .  S
Zr1681     O1686   2.411       .  S
O1682      C1687   1.284       .  A
O1683      H1700   0.990       .  S
O1683      H1715   0.990       .  S
O1684      H1701   0.990       .  S
O1685      H1705   0.990       .  S
O1685      H1714   0.990       .  S
O1686      C1687   1.277       .  A
C1687      C4435   1.436       .  S
O1688      H1707   0.990       .  S
O1688      H1711   0.991       .  S
O1689      H1703   0.990       .  S
O1689      H1710   0.990       .  S
O1690      C1694   1.287       .  A
O1691      C1694   1.282       .  A
O1692      H1702   0.990       .  S
O1693      H1706   0.990       .  S
C1694      C4480   1.440       .  S
Zr1717     O1718   2.442       .  S
Zr1717     O1719   2.456       .  S
Zr1717     O1720   2.455       .  S
Zr1717     O1723   2.447       .  S
Zr1717     O1725   2.385       .  S
Zr1717     O1726   2.383       .  S
Zr1717     O1727   2.416       .  S
Zr1717     O1728   2.399       .  S
O1718      H1774   0.990       .  S
O1718      H1782   0.991       .  S
O1719      C1739   1.286       .  A
O1720      C1741   1.285       .  A
O1721     Zr1731   2.415       .  S
O1721      C1740   1.280       .  A
O1722     Zr1730   2.434       .  S
O1722      C1741   1.282       .  A
O1723      C1740   1.285       .  A
O1724     Zr1732   2.410       .  S
O1724      C1739   1.277       .  A
O1725     Zr1730   2.399       .  S
O1725     Zr1732   2.382       .  S
O1726     Zr1731   2.394       .  S
O1726     Zr1732   2.386       .  S
O1726      H1761   0.964       .  S
O1727     Zr1730   2.404       .  S
O1727     Zr1747   2.392       .  S
O1727      H1764   0.964       .  S
O1728     Zr1731   2.385       .  S
O1728     Zr1747   2.384       .  S
Zr1729     O1754   2.441   1_554  S
Zr1729     O1748   2.449   1_554  S
Zr1729     O1756   2.460       .  S
Zr1729     O1744   2.429       .  S
Zr1729     O1735   2.388       .  S
Zr1729     O1736   2.418       .  S
Zr1729     O1737   2.381       .  S
Zr1729     O1738   2.381       .  S
Zr1730     O1749   2.437       .  S
Zr1730     O1742   2.437       .  S
Zr1730     O1743   2.433       .  S
Zr1730     O1736   2.401       .  S
Zr1730     O1737   2.395       .  S
Zr1731     O1733   2.437       .  S
Zr1731     O1755   2.440       .  S
Zr1731     O1757   2.417       .  S
Zr1731     O1735   2.382       .  S
Zr1731     O1738   2.396       .  S
Zr1732     O1758   2.435       .  S
Zr1732     O1759   2.436       .  S
Zr1732     O1734   2.439       .  S
Zr1732     O1735   2.381       .  S
Zr1732     O1736   2.394       .  S
O1733      H1770   0.990       .  S
O1734      H1765   0.990       .  S
O1734      H1779   0.990       .  S
O1736      H1762   0.966       .  S
O1737     Zr1747   2.375       .  S
O1738     Zr1747   2.388       .  S
O1738      H1763   0.967       .  S
C1739      C4421   1.439       .  S
C1740      C4440   1.430       .  S
C1741      C4424   1.442       .  S
O1742      H1778   0.990       .  S
O1743      C1745   1.283       .  A
O1744      C1745   1.281       .  A
C1745      C4558   1.431   1_554  S
O1746     Zr1747   2.437       .  S
O1746      H1775   0.990       .  S
Zr1747     O1750   2.437   1_554  S
Zr1747     O1751   2.438   1_554  S
Zr1747     O1752   2.408   1_554  S
O1748      C1753   1.284       .  A
O1749      H1766   0.990       .  S
O1749      H1781   0.990       .  S
O1750      H1767   0.990       .  S
O1751      H1771   0.990       .  S
O1751      H1780   0.990   1_556  S
O1752      C1753   1.277       .  A
C1753      C4419   1.437       .  S
O1754      H1773   0.990   1_556  S
O1754      H1777   0.991       .  S
O1755      H1769   0.990       .  S
O1755      H1776   0.990       .  S
O1756      C1760   1.288       .  A
O1757      C1760   1.280       .  A
O1758      H1768   0.990       .  S
O1759      H1772   0.990       .  S
C1760      C4470   1.435       .  S
Zr1783     O1784   2.442       .  S
Zr1783     O1785   2.452       .  S
Zr1783     O1786   2.455       .  S
Zr1783     O1789   2.446       .  S
Zr1783     O1791   2.385       .  S
Zr1783     O1792   2.386       .  S
Zr1783     O1793   2.414       .  S
Zr1783     O1794   2.398       .  S
O1784      H1840   0.990       .  S
O1784      H1848   0.991       .  S
O1785      C1805   1.285       .  A
O1786      C1807   1.286       .  A
O1787     Zr1797   2.421       .  S
O1787      C1806   1.281       .  A
O1788     Zr1796   2.439       .  S
O1788      C1807   1.284       .  A
O1789      C1806   1.285       .  A
O1790     Zr1798   2.411       .  S
O1790      C1805   1.278       .  A
O1791     Zr1796   2.401       .  S
O1791     Zr1798   2.381       .  S
O1792     Zr1797   2.394       .  S
O1792     Zr1798   2.387       .  S
O1792      H1827   0.966       .  S
O1793     Zr1796   2.403       .  S
O1793     Zr1813   2.392       .  S
O1793      H1830   0.965       .  S
O1794     Zr1797   2.383       .  S
O1794     Zr1813   2.385       .  S
Zr1795     O1820   2.443       .  S
Zr1795     O1814   2.451       .  S
Zr1795     O1822   2.455       .  S
Zr1795     O1810   2.430       .  S
Zr1795     O1801   2.390       .  S
Zr1795     O1802   2.418       .  S
Zr1795     O1803   2.380       .  S
Zr1795     O1804   2.384       .  S
Zr1796     O1815   2.434       .  S
Zr1796     O1808   2.436       .  S
Zr1796     O1809   2.434       .  S
Zr1796     O1802   2.404       .  S
Zr1796     O1803   2.394       .  S
Zr1797     O1799   2.435       .  S
Zr1797     O1821   2.439       .  S
Zr1797     O1823   2.418       .  S
Zr1797     O1801   2.380       .  S
Zr1797     O1804   2.398       .  S
Zr1798     O1824   2.436       .  S
Zr1798     O1825   2.436       .  S
Zr1798     O1800   2.438       .  S
Zr1798     O1801   2.381       .  S
Zr1798     O1802   2.394       .  S
O1799      H1836   0.990       .  S
O1800      H1831   0.990       .  S
O1800      H1845   0.990       .  S
O1802      H1828   0.966       .  S
O1803     Zr1813   2.375       .  S
O1804     Zr1813   2.391       .  S
O1804      H1829   0.966       .  S
C1805      C4420   1.437       .  S
C1806      C4430   1.433       .  S
C1807      C4417   1.445       .  S
O1808      H1844   0.990       .  S
O1809      C1811   1.284       .  A
O1810      C1811   1.281       .  A
C1811      C4564   1.432       .  S
O1812     Zr1813   2.439       .  S
O1812      H1841   0.990       .  S
Zr1813     O1816   2.438       .  S
Zr1813     O1817   2.438       .  S
Zr1813     O1818   2.409       .  S
O1814      C1819   1.285       .  A
O1815      H1832   0.990       .  S
O1815      H1847   0.990       .  S
O1816      H1833   0.990       .  S
O1817      H1837   0.990       .  S
O1817      H1846   0.990       .  S
O1818      C1819   1.277       .  A
C1819      C4422   1.439       .  S
O1820      H1839   0.990       .  S
O1820      H1843   0.991       .  S
O1821      H1835   0.990       .  S
O1821      H1842   0.990       .  S
O1822      C1826   1.287       .  A
O1823      C1826   1.280       .  A
O1824      H1834   0.990       .  S
O1825      H1838   0.990       .  S
C1826      C4466   1.435       .  S
Zr1849     O1850   2.441       .  S
Zr1849     O1851   2.451       .  S
Zr1849     O1852   2.453       .  S
Zr1849     O1855   2.445       .  S
Zr1849     O1857   2.383       .  S
Zr1849     O1858   2.385   1_565  S
Zr1849     O1859   2.413       .  S
Zr1849     O1860   2.399       .  S
O1850      H1906   0.990       .  S
O1850      H1914   0.991       .  S
O1851      C1871   1.284   1_565  A
O1852      C1873   1.285       .  A
O1853     Zr1863   2.410       .  S
O1853      C1872   1.279   1_545  A
O1854     Zr1862   2.432       .  S
O1854      C1873   1.282       .  A
O1855      C1872   1.285       .  A
O1856     Zr1864   2.413       .  S
O1856      C1871   1.277       .  A
O1857     Zr1862   2.400       .  S
O1857     Zr1864   2.383   1_565  S
O1858     Zr1863   2.398       .  S
O1858     Zr1864   2.383       .  S
O1858      H1893   0.964       .  S
O1859     Zr1862   2.403       .  S
O1859     Zr1879   2.395       .  S
O1859      H1896   0.964       .  S
O1860     Zr1863   2.382   1_565  S
O1860     Zr1879   2.384       .  S
Zr1861     O1886   2.442   1_554  S
Zr1861     O1880   2.451   1_554  S
Zr1861     O1888   2.460       .  S
Zr1861     O1876   2.432       .  S
Zr1861     O1867   2.389       .  S
Zr1861     O1868   2.419       .  S
Zr1861     O1869   2.379   1_545  S
Zr1861     O1870   2.384       .  S
Zr1862     O1881   2.437       .  S
Zr1862     O1874   2.435       .  S
Zr1862     O1875   2.433       .  S
Zr1862     O1868   2.404   1_565  S
Zr1862     O1869   2.393       .  S
Zr1863     O1865   2.436       .  S
Zr1863     O1887   2.440       .  S
Zr1863     O1889   2.418       .  S
Zr1863     O1867   2.382       .  S
Zr1863     O1870   2.397       .  S
Zr1864     O1890   2.437       .  S
Zr1864     O1891   2.435       .  S
Zr1864     O1866   2.438       .  S
Zr1864     O1867   2.380       .  S
Zr1864     O1868   2.401       .  S
O1865      H1902   0.990       .  S
O1866      H1897   0.990       .  S
O1866      H1911   0.990   1_545  S
O1868      H1894   0.965       .  S
O1869     Zr1879   2.376       .  S
O1870     Zr1879   2.390   1_545  S
O1870      H1895   0.966       .  S
C1871      C4413   1.438       .  S
C1872      C4416   1.428       .  S
C1873      C4438   1.440       .  S
O1874      H1910   0.990       .  S
O1875      C1877   1.283       .  A
O1876      C1877   1.281   1_545  A
C1877      C4409   1.433   1_564  S
O1878     Zr1879   2.439       .  S
O1878      H1907   0.990       .  S
Zr1879     O1882   2.436   1_554  S
Zr1879     O1883   2.440   1_554  S
Zr1879     O1884   2.409   1_554  S
O1880      C1885   1.285       .  A
O1881      H1898   0.990       .  S
O1881      H1913   0.990       .  S
O1882      H1899   0.990       .  S
O1883      H1903   0.990   1_565  S
O1883      H1912   0.990   1_556  S
O1884      C1885   1.277   1_565  A
C1885      C4412   1.437       .  S
O1886      H1905   0.990   1_556  S
O1886      H1909   0.991       .  S
O1887      H1901   0.990       .  S
O1887      H1908   0.990       .  S
O1888      C1892   1.288       .  A
O1889      C1892   1.281       .  A
O1890      H1900   0.990       .  S
O1891      H1904   0.990       .  S
C1892      C4458   1.436       .  S
Zr1915     O1916   2.443       .  S
Zr1915     O1917   2.450       .  S
Zr1915     O1918   2.455       .  S
Zr1915     O1921   2.443       .  S
Zr1915     O1923   2.382       .  S
Zr1915     O1924   2.387   1_565  S
Zr1915     O1925   2.415       .  S
Zr1915     O1926   2.399       .  S
O1916      H1972   0.990       .  S
O1916      H1980   0.991       .  S
O1917      C1937   1.285   1_565  A
O1918      C1939   1.285       .  A
O1919     Zr1929   2.417       .  S
O1919      C1938   1.281   1_545  A
O1920     Zr1928   2.434       .  S
O1920      C1939   1.283       .  A
O1921      C1938   1.285       .  A
O1922     Zr1930   2.412       .  S
O1922      C1937   1.278       .  A
O1923     Zr1928   2.399       .  S
O1923     Zr1930   2.381   1_565  S
O1924     Zr1929   2.395       .  S
O1924     Zr1930   2.384       .  S
O1924      H1959   0.965       .  S
O1925     Zr1928   2.403       .  S
O1925     Zr1945   2.396       .  S
O1925      H1962   0.965       .  S
O1926     Zr1929   2.384   1_565  S
O1926     Zr1945   2.381       .  S
Zr1927     O1952   2.445       .  S
Zr1927     O1946   2.449       .  S
Zr1927     O1954   2.454       .  S
Zr1927     O1942   2.428       .  S
Zr1927     O1933   2.391       .  S
Zr1927     O1934   2.416       .  S
Zr1927     O1935   2.380   1_545  S
Zr1927     O1936   2.383       .  S
Zr1928     O1947   2.437       .  S
Zr1928     O1940   2.435       .  S
Zr1928     O1941   2.430       .  S
Zr1928     O1934   2.400   1_565  S
Zr1928     O1935   2.393       .  S
Zr1929     O1931   2.437       .  S
Zr1929     O1953   2.440       .  S
Zr1929     O1955   2.421       .  S
Zr1929     O1933   2.382       .  S
Zr1929     O1936   2.396       .  S
Zr1930     O1956   2.436       .  S
Zr1930     O1957   2.436       .  S
Zr1930     O1932   2.437       .  S
Zr1930     O1933   2.385       .  S
Zr1930     O1934   2.393       .  S
O1931      H1968   0.990       .  S
O1932      H1963   0.990       .  S
O1932      H1977   0.990   1_545  S
O1934      H1960   0.965       .  S
O1935     Zr1945   2.375       .  S
O1936     Zr1945   2.391   1_545  S
O1936      H1961   0.965       .  S
C1937      C4411   1.437       .  S
C1938      C4407   1.430       .  S
C1939      C4427   1.443       .  S
O1940      H1976   0.990       .  S
O1941      C1943   1.283       .  A
O1942      C1943   1.280   1_545  A
C1943      C4406   1.429   1_565  S
O1944     Zr1945   2.438       .  S
O1944      H1973   0.990       .  S
Zr1945     O1948   2.439       .  S
Zr1945     O1949   2.439       .  S
Zr1945     O1950   2.409       .  S
O1946      C1951   1.284       .  A
O1947      H1964   0.990       .  S
O1947      H1979   0.990       .  S
O1948      H1965   0.990       .  S
O1949      H1969   0.990   1_565  S
O1949      H1978   0.990       .  S
O1950      C1951   1.277   1_565  A
C1951      C4414   1.438       .  S
O1952      H1971   0.990       .  S
O1952      H1975   0.991       .  S
O1953      H1967   0.990       .  S
O1953      H1974   0.990       .  S
O1954      C1958   1.286       .  A
O1955      C1958   1.281       .  A
O1956      H1966   0.990       .  S
O1957      H1970   0.990       .  S
C1958      C4451   1.437       .  S
Zr1981     O1982   2.442       .  S
Zr1981     O1983   2.450       .  S
Zr1981     O1984   2.451       .  S
Zr1981     O1987   2.438       .  S
Zr1981     O1989   2.382       .  S
Zr1981     O1990   2.385   1_565  S
Zr1981     O1991   2.412       .  S
Zr1981     O1992   2.397       .  S
O1982      H2038   0.990       .  S
O1982      H2046   0.991       .  S
O1983      C2003   1.285   1_565  A
O1984      C2005   1.285       .  A
O1985     Zr1995   2.421       .  S
O1985      C2004   1.281   1_545  A
O1986     Zr1994   2.434       .  S
O1986      C2005   1.282       .  A
O1987      C2004   1.283       .  A
O1988     Zr1996   2.412       .  S
O1988      C2003   1.278       .  A
O1989     Zr1994   2.398       .  S
O1989     Zr1996   2.381   1_565  S
O1990     Zr1995   2.395       .  S
O1990     Zr1996   2.385       .  S
O1990      H2025   0.965       .  S
O1991     Zr1994   2.405       .  S
O1991     Zr2011   2.395       .  S
O1991      H2028   0.965       .  S
O1992     Zr1995   2.382   1_565  S
O1992     Zr2011   2.381       .  S
Zr1993     O2018   2.443       .  S
Zr1993     O2012   2.450       .  S
Zr1993     O2020   2.455       .  S
Zr1993     O2008   2.437       .  S
Zr1993     O1999   2.390       .  S
Zr1993     O2000   2.418       .  S
Zr1993     O2001   2.381   1_545  S
Zr1993     O2002   2.385       .  S
Zr1994     O2013   2.436       .  S
Zr1994     O2006   2.436       .  S
Zr1994     O2007   2.435       .  S
Zr1994     O2000   2.401   1_565  S
Zr1994     O2001   2.397       .  S
Zr1995     O1997   2.436       .  S
Zr1995     O2019   2.440       .  S
Zr1995     O2021   2.423       .  S
Zr1995     O1999   2.381       .  S
Zr1995     O2002   2.398       .  S
Zr1996     O2022   2.435       .  S
Zr1996     O2023   2.437       .  S
Zr1996     O1998   2.437       .  S
Zr1996     O1999   2.380       .  S
Zr1996     O2000   2.398       .  S
O1997      H2034   0.990       .  S
O1998      H2029   0.990       .  S
O1998      H2043   0.990   1_545  S
O2000      H2026   0.966       .  S
O2001     Zr2011   2.377       .  S
O2002     Zr2011   2.390   1_545  S
O2002      H2027   0.966       .  S
C2003      C4403   1.437       .  S
C2004      C4415   1.429       .  S
C2005      C4423   1.442       .  S
O2006      H2042   0.990       .  S
O2007      C2009   1.284       .  A
O2008      C2009   1.282   1_545  A
C2009      C4536   1.436       .  S
O2010     Zr2011   2.439       .  S
O2010      H2039   0.990       .  S
Zr2011     O2014   2.436       .  S
Zr2011     O2015   2.441       .  S
Zr2011     O2016   2.412       .  S
O2012      C2017   1.284       .  A
O2013      H2030   0.990       .  S
O2013      H2045   0.990       .  S
O2014      H2031   0.990       .  S
O2015      H2035   0.990   1_565  S
O2015      H2044   0.990       .  S
O2016      C2017   1.278   1_565  A
C2017      C4402   1.438       .  S
O2018      H2037   0.990       .  S
O2018      H2041   0.991       .  S
O2019      H2033   0.990       .  S
O2019      H2040   0.990       .  S
O2020      C2024   1.287       .  A
O2021      C2024   1.281       .  A
O2022      H2032   0.990       .  S
O2023      H2036   0.990       .  S
C2024      C4443   1.436       .  S
Zr2047     O2048   2.441       .  S
Zr2047     O2049   2.454       .  S
Zr2047     O2050   2.454       .  S
Zr2047     O2053   2.442       .  S
Zr2047     O2055   2.384       .  S
Zr2047     O2056   2.387   1_565  S
Zr2047     O2057   2.417       .  S
Zr2047     O2058   2.398       .  S
O2048      H2104   0.990       .  S
O2048      H2112   0.991       .  S
O2049      C2069   1.285   1_565  A
O2050      C2071   1.285       .  A
O2051     Zr2061   2.421       .  S
O2051      C2070   1.281   1_545  A
O2052     Zr2060   2.436       .  S
O2052      C2071   1.283       .  A
O2053      C2070   1.284       .  A
O2054     Zr2062   2.413       .  S
O2054      C2069   1.278       .  A
O2055     Zr2060   2.400       .  S
O2055     Zr2062   2.380   1_565  S
O2056     Zr2061   2.395       .  S
O2056     Zr2062   2.388       .  S
O2056      H2091   0.965       .  S
O2057     Zr2060   2.405       .  S
O2057     Zr2077   2.397       .  S
O2057      H2094   0.965       .  S
O2058     Zr2061   2.381   1_565  S
O2058     Zr2077   2.382       .  S
Zr2059     O2084   2.442       .  S
Zr2059     O2078   2.449       .  S
Zr2059     O2086   2.456       .  S
Zr2059     O2074   2.432       .  S
Zr2059     O2065   2.391       .  S
Zr2059     O2066   2.418       .  S
Zr2059     O2067   2.381   1_545  S
Zr2059     O2068   2.384       .  S
Zr2060     O2079   2.436       .  S
Zr2060     O2072   2.435       .  S
Zr2060     O2073   2.438       .  S
Zr2060     O2066   2.401   1_565  S
Zr2060     O2067   2.396       .  S
Zr2061     O2063   2.436       .  S
Zr2061     O2085   2.440       .  S
Zr2061     O2087   2.420       .  S
Zr2061     O2065   2.382       .  S
Zr2061     O2068   2.397       .  S
Zr2062     O2088   2.434       .  S
Zr2062     O2089   2.437       .  S
Zr2062     O2064   2.438       .  S
Zr2062     O2065   2.384       .  S
Zr2062     O2066   2.393       .  S
O2063      H2100   0.990       .  S
O2064      H2095   0.990       .  S
O2064      H2109   0.990   1_545  S
O2066      H2092   0.965       .  S
O2067     Zr2077   2.378       .  S
O2068     Zr2077   2.388   1_545  S
O2068      H2093   0.966       .  S
C2069      C4401   1.439       .  S
C2070      C4408   1.431       .  S
C2071      C4418   1.444       .  S
O2072      H2108   0.990       .  S
O2073      C2075   1.284       .  A
O2074      C2075   1.281   1_545  A
C2075      C4530   1.435   1_565  S
O2076     Zr2077   2.438       .  S
O2076      H2105   0.990       .  S
Zr2077     O2080   2.436       .  S
Zr2077     O2081   2.440       .  S
Zr2077     O2082   2.411       .  S
O2078      C2083   1.284       .  A
O2079      H2096   0.990       .  S
O2079      H2111   0.990       .  S
O2080      H2097   0.990       .  S
O2081      H2101   0.990   1_565  S
O2081      H2110   0.990       .  S
O2082      C2083   1.278   1_565  A
C2083      C4404   1.438       .  S
O2084      H2103   0.990       .  S
O2084      H2107   0.991       .  S
O2085      H2099   0.990       .  S
O2085      H2106   0.990       .  S
O2086      C2090   1.287       .  A
O2087      C2090   1.281       .  A
O2088      H2098   0.990       .  S
O2089      H2102   0.991       .  S
C2090      C4442   1.435       .  S
Zr2113     O2114   2.444       .  S
Zr2113     O2115   2.463       .  S
Zr2113     O2116   2.476       .  S
Zr2113     O2119   2.427       .  S
Zr2113     O2121   2.377       .  S
Zr2113     O2122   2.390   1_565  S
Zr2113     O2123   2.409       .  S
Zr2113     O2124   2.417       .  S
O2114      H2170   0.990       .  S
O2114      H2178   0.991       .  S
O2115      C2135   1.287   1_565  A
O2116      C2137   1.289       .  A
O2117     Zr2127   2.432       .  S
O2117      C2136   1.284       .  A
O2118     Zr2126   2.409       .  S
O2118      C2137   1.278       .  A
O2119      C2136   1.281   1_565  A
O2120     Zr2128   2.399       .  S
O2120      C2135   1.275       .  A
O2121     Zr2126   2.399       .  S
O2121     Zr2128   2.393   1_565  S
O2122     Zr2127   2.394       .  S
O2122     Zr2128   2.371       .  S
O2122      H2157   0.966       .  S
O2123     Zr2126   2.398       .  S
O2123     Zr2143   2.377       .  S
O2123      H2160   0.964       .  S
O2124     Zr2127   2.390   1_565  S
O2124     Zr2143   2.392       .  S
Zr2125     O2150   2.441       .  S
Zr2125     O2144   2.456       .  S
Zr2125     O2152   2.435       .  S
Zr2125     O2140   2.463       .  S
Zr2125     O2131   2.411       .  S
Zr2125     O2132   2.411       .  S
Zr2125     O2133   2.374   1_545  S
Zr2125     O2134   2.388       .  S
Zr2126     O2145   2.435       .  S
Zr2126     O2138   2.434       .  S
Zr2126     O2139   2.406       .  S
Zr2126     O2132   2.399   1_565  S
Zr2126     O2133   2.394       .  S
Zr2127     O2129   2.434       .  S
Zr2127     O2151   2.439       .  S
Zr2127     O2153   2.432       .  S
Zr2127     O2131   2.392       .  S
Zr2127     O2134   2.395       .  S
Zr2128     O2154   2.437       .  S
Zr2128     O2155   2.436       .  S
Zr2128     O2130   2.437       .  S
Zr2128     O2131   2.390       .  S
Zr2128     O2132   2.375       .  S
O2129      H2166   0.990       .  S
O2130      H2161   0.991       .  S
O2130      H2175   0.990       .  S
O2132      H2158   0.963       .  S
O2133     Zr2143   2.387       .  S
O2134     Zr2143   2.376   1_545  S
O2134      H2159   0.966       .  S
C2135      C4394   1.437       .  S
C2136      C4389   1.430       .  S
C2137      C4391   1.435       .  S
O2138      H2174   0.990       .  S
O2139      C2141   1.278   1_565  A
O2140      C2141   1.287       .  A
C2141      C4400   1.429       .  S
O2142     Zr2143   2.440       .  S
O2142      H2171   0.990       .  S
Zr2143     O2146   2.440       .  S
Zr2143     O2147   2.443       .  S
Zr2143     O2148   2.400       .  S
O2144      C2149   1.286       .  A
O2145      H2162   0.990       .  S
O2145      H2177   0.990       .  S
O2146      H2163   0.990       .  S
O2147      H2167   0.990       .  S
O2147      H2176   0.989   1_565  S
O2148      C2149   1.275   1_565  A
C2149      C4395   1.436       .  S
O2150      H2169   0.991       .  S
O2150      H2173   0.990       .  S
O2151      H2165   0.990       .  S
O2151      H2172   0.990       .  S
O2152      C2156   1.283       .  A
O2153      C2156   1.283       .  A
O2154      H2164   0.990       .  S
O2155      H2168   0.990       .  S
C2156      C4398   1.437       .  S
Zr2179     O2180   2.443       .  S
Zr2179     O2181   2.461       .  S
Zr2179     O2182   2.479       .  S
Zr2179     O2185   2.425       .  S
Zr2179     O2187   2.377       .  S
Zr2179     O2188   2.393   1_565  S
Zr2179     O2189   2.409       .  S
Zr2179     O2190   2.417       .  S
O2180      H2236   0.990       .  S
O2180      H2244   0.991       .  S
O2181      C2201   1.286   1_565  A
O2182      C2203   1.290       .  A
O2183     Zr2193   2.430       .  S
O2183      C2202   1.283       .  A
O2184     Zr2192   2.411       .  S
O2184      C2203   1.279       .  A
O2185      C2202   1.281   1_565  A
O2186     Zr2194   2.393       .  S
O2186      C2201   1.273       .  A
O2187     Zr2192   2.400       .  S
O2187     Zr2194   2.391   1_565  S
O2188     Zr2193   2.394       .  S
O2188     Zr2194   2.373       .  S
O2188      H2223   0.965       .  S
O2189     Zr2192   2.395       .  S
O2189     Zr2209   2.375       .  S
O2189      H2226   0.964       .  S
O2190     Zr2193   2.389   1_565  S
O2190     Zr2209   2.390       .  S
Zr2191     O2216   2.441       .  S
Zr2191     O2210   2.459       .  S
Zr2191     O2218   2.436       .  S
Zr2191     O2206   2.458       .  S
Zr2191     O2197   2.408       .  S
Zr2191     O2198   2.410       .  S
Zr2191     O2199   2.373   1_545  S
Zr2191     O2200   2.388       .  S
Zr2192     O2211   2.435       .  S
Zr2192     O2204   2.434       .  S
Zr2192     O2205   2.408       .  S
Zr2192     O2198   2.400   1_565  S
Zr2192     O2199   2.391       .  S
Zr2193     O2195   2.436       .  S
Zr2193     O2217   2.437       .  S
Zr2193     O2219   2.426       .  S
Zr2193     O2197   2.392       .  S
Zr2193     O2200   2.395       .  S
Zr2194     O2220   2.436       .  S
Zr2194     O2221   2.437       .  S
Zr2194     O2196   2.439       .  S
Zr2194     O2197   2.392       .  S
Zr2194     O2198   2.371       .  S
O2195      H2232   0.990       .  S
O2196      H2227   0.991       .  S
O2196      H2241   0.990       .  S
O2198      H2224   0.963       .  S
O2199     Zr2209   2.386       .  S
O2200     Zr2209   2.377   1_545  S
O2200      H2225   0.966       .  S
C2201      C4396   1.435       .  S
C2202      C4381   1.428       .  S
C2203      C4383   1.437       .  S
O2204      H2240   0.990       .  S
O2205      C2207   1.279   1_565  A
O2206      C2207   1.287       .  A
C2207      C4388   1.427       .  S
O2208     Zr2209   2.440       .  S
O2208      H2237   0.990       .  S
Zr2209     O2212   2.439       .  S
Zr2209     O2213   2.441       .  S
Zr2209     O2214   2.401       .  S
O2210      C2215   1.287       .  A
O2211      H2228   0.990       .  S
O2211      H2243   0.990       .  S
O2212      H2229   0.990       .  S
O2213      H2233   0.990       .  S
O2213      H2242   0.989   1_565  S
O2214      C2215   1.275   1_565  A
C2215      C4393   1.437       .  S
O2216      H2235   0.991       .  S
O2216      H2239   0.990       .  S
O2217      H2231   0.990       .  S
O2217      H2238   0.990       .  S
O2218      C2222   1.283       .  A
O2219      C2222   1.282       .  A
O2220      H2230   0.990       .  S
O2221      H2234   0.990       .  S
C2222      C4385   1.435       .  S
Zr2245     O2246   2.444       .  S
Zr2245     O2247   2.465       .  S
Zr2245     O2248   2.478       .  S
Zr2245     O2251   2.424       .  S
Zr2245     O2253   2.378       .  S
Zr2245     O2254   2.392   1_565  S
Zr2245     O2255   2.408       .  S
Zr2245     O2256   2.417       .  S
O2246      H2302   0.990       .  S
O2246      H2310   0.991       .  S
O2247      C2267   1.288   1_565  A
O2248      C2269   1.290       .  A
O2249     Zr2259   2.434       .  S
O2249      C2268   1.284       .  A
O2250     Zr2258   2.406       .  S
O2250      C2269   1.277       .  A
O2251      C2268   1.281   1_565  A
O2252     Zr2260   2.400       .  S
O2252      C2267   1.275       .  A
O2253     Zr2258   2.401       .  S
O2253     Zr2260   2.392   1_565  S
O2254     Zr2259   2.396       .  S
O2254     Zr2260   2.372       .  S
O2254      H2289   0.965       .  S
O2255     Zr2258   2.397       .  S
O2255     Zr2275   2.372       .  S
O2255      H2292   0.963       .  S
O2256     Zr2259   2.390   1_565  S
O2256     Zr2275   2.390       .  S
Zr2257     O2282   2.441       .  S
Zr2257     O2276   2.455       .  S
Zr2257     O2284   2.443       .  S
Zr2257     O2272   2.462       .  S
Zr2257     O2263   2.408       .  S
Zr2257     O2264   2.411       .  S
Zr2257     O2265   2.375   1_545  S
Zr2257     O2266   2.389       .  S
Zr2258     O2277   2.436       .  S
Zr2258     O2270   2.434       .  S
Zr2258     O2271   2.406       .  S
Zr2258     O2264   2.399   1_565  S
Zr2258     O2265   2.393       .  S
Zr2259     O2261   2.435       .  S
Zr2259     O2283   2.438       .  S
Zr2259     O2285   2.433       .  S
Zr2259     O2263   2.390       .  S
Zr2259     O2266   2.395       .  S
Zr2260     O2286   2.435       .  S
Zr2260     O2287   2.434       .  S
Zr2260     O2262   2.438       .  S
Zr2260     O2263   2.391       .  S
Zr2260     O2264   2.375       .  S
O2261      H2298   0.990       .  S
O2262      H2293   0.991       .  S
O2262      H2307   0.990       .  S
O2264      H2290   0.963       .  S
O2265     Zr2275   2.388       .  S
O2266     Zr2275   2.378   1_545  S
O2266      H2291   0.965       .  S
C2267      C4376   1.439       .  S
C2268      C4405   1.430       .  S
C2269      C4373   1.433       .  S
O2270      H2306   0.990       .  S
O2271      C2273   1.278   1_565  A
O2272      C2273   1.287       .  A
C2273      C4399   1.429       .  S
O2274     Zr2275   2.441       .  S
O2274      H2303   0.990       .  S
Zr2275     O2278   2.439       .  S
Zr2275     O2279   2.442       .  S
Zr2275     O2280   2.398       .  S
O2276      C2281   1.286       .  A
O2277      H2294   0.990       .  S
O2277      H2309   0.990       .  S
O2278      H2295   0.990       .  S
O2279      H2299   0.990       .  S
O2279      H2308   0.989   1_565  S
O2280      C2281   1.275   1_565  A
C2281      C4378   1.434       .  S
O2282      H2301   0.991       .  S
O2282      H2305   0.990       .  S
O2283      H2297   0.990       .  S
O2283      H2304   0.990       .  S
O2284      C2288   1.285       .  A
O2285      C2288   1.283       .  A
O2286      H2296   0.990       .  S
O2287      H2300   0.990       .  S
C2288      C4380   1.441       .  S
Zr2311     O2312   2.441   1_556  S
Zr2311     O2313   2.457   1_556  S
Zr2311     O2314   2.474       .  S
Zr2311     O2317   2.427       .  S
Zr2311     O2319   2.378       .  S
Zr2311     O2320   2.390   1_565  S
Zr2311     O2321   2.410       .  S
Zr2311     O2322   2.415       .  S
O2312      H2368   0.990       .  S
O2312      H2376   0.991   1_554  S
O2313      C2333   1.286   1_565  A
O2314      C2335   1.290       .  A
O2315     Zr2325   2.433       .  S
O2315      C2334   1.283       .  A
O2316     Zr2324   2.416       .  S
O2316      C2335   1.279       .  A
O2317      C2334   1.281   1_565  A
O2318     Zr2326   2.395   1_554  S
O2318      C2333   1.274       .  A
O2319     Zr2324   2.400       .  S
O2319     Zr2326   2.391   1_565  S
O2320     Zr2325   2.395       .  S
O2320     Zr2326   2.372       .  S
O2320      H2355   0.965       .  S
O2321     Zr2324   2.397       .  S
O2321     Zr2341   2.374       .  S
O2321      H2358   0.964       .  S
O2322     Zr2325   2.390   1_565  S
O2322     Zr2341   2.391       .  S
Zr2323     O2348   2.440       .  S
Zr2323     O2342   2.461       .  S
Zr2323     O2350   2.438       .  S
Zr2323     O2338   2.457       .  S
Zr2323     O2329   2.407       .  S
Zr2323     O2330   2.412       .  S
Zr2323     O2331   2.375   1_545  S
Zr2323     O2332   2.387       .  S
Zr2324     O2343   2.436       .  S
Zr2324     O2336   2.435       .  S
Zr2324     O2337   2.410       .  S
Zr2324     O2330   2.402   1_565  S
Zr2324     O2331   2.395       .  S
Zr2325     O2327   2.436       .  S
Zr2325     O2349   2.437       .  S
Zr2325     O2351   2.433       .  S
Zr2325     O2329   2.391       .  S
Zr2325     O2332   2.394       .  S
Zr2326     O2352   2.437   1_556  S
Zr2326     O2353   2.435       .  S
Zr2326     O2328   2.438       .  S
Zr2326     O2329   2.390       .  S
Zr2326     O2330   2.373       .  S
O2327      H2364   0.990       .  S
O2328      H2359   0.990   1_556  S
O2328      H2373   0.990   1_556  S
O2330      H2356   0.963       .  S
O2331     Zr2341   2.388       .  S
O2332     Zr2341   2.376   1_545  S
O2332      H2357   0.966       .  S
C2333      C4377   1.434       .  S
C2334      C4410   1.432       .  S
C2335      C4369   1.437       .  S
O2336      H2372   0.990       .  S
O2337      C2339   1.278   1_565  A
O2338      C2339   1.286       .  A
C2339      C4387   1.427       .  S
O2340     Zr2341   2.441       .  S
O2340      H2369   0.990       .  S
Zr2341     O2344   2.438       .  S
Zr2341     O2345   2.441       .  S
Zr2341     O2346   2.399       .  S
O2342      C2347   1.287       .  A
O2343      H2360   0.990       .  S
O2343      H2375   0.990       .  S
O2344      H2361   0.990       .  S
O2345      H2365   0.990       .  S
O2345      H2374   0.989   1_565  S
O2346      C2347   1.275   1_565  A
C2347      C4375   1.439       .  S
O2348      H2367   0.991       .  S
O2348      H2371   0.990       .  S
O2349      H2363   0.990       .  S
O2349      H2370   0.990       .  S
O2350      C2354   1.284       .  A
O2351      C2354   1.284       .  A
O2352      H2362   0.990       .  S
O2353      H2366   0.990       .  S
C2354      C4372   1.439       .  S
Zr2377     O2378   2.443       .  S
Zr2377     O2379   2.459       .  S
Zr2377     O2380   2.475       .  S
Zr2377     O2383   2.428       .  S
Zr2377     O2385   2.381       .  S
Zr2377     O2386   2.392       .  S
Zr2377     O2387   2.410       .  S
Zr2377     O2388   2.415       .  S
O2378      H2434   0.990       .  S
O2378      H2442   0.991       .  S
O2379      C2399   1.286       .  A
O2380      C2401   1.290       .  A
O2381     Zr2391   2.438       .  S
O2381      C2400   1.285       .  A
O2382     Zr2390   2.413       .  S
O2382      C2401   1.279       .  A
O2383      C2400   1.282       .  A
O2384     Zr2392   2.399       .  S
O2384      C2399   1.274       .  A
O2385     Zr2390   2.401       .  S
O2385     Zr2392   2.393       .  S
O2386     Zr2391   2.395       .  S
O2386     Zr2392   2.372       .  S
O2386      H2421   0.966       .  S
O2387     Zr2390   2.399       .  S
O2387     Zr2407   2.371       .  S
O2387      H2424   0.962       .  S
O2388     Zr2391   2.389       .  S
O2388     Zr2407   2.390       .  S
Zr2389     O2414   2.442       .  S
Zr2389     O2408   2.466       .  S
Zr2389     O2416   2.440       .  S
Zr2389     O2404   2.457       .  S
Zr2389     O2395   2.411       .  S
Zr2389     O2396   2.413       .  S
Zr2389     O2397   2.373       .  S
Zr2389     O2398   2.387       .  S
Zr2390     O2409   2.437       .  S
Zr2390     O2402   2.436       .  S
Zr2390     O2403   2.405       .  S
Zr2390     O2396   2.400       .  S
Zr2390     O2397   2.395       .  S
Zr2391     O2393   2.434       .  S
Zr2391     O2415   2.437       .  S
Zr2391     O2417   2.434       .  S
Zr2391     O2395   2.393       .  S
Zr2391     O2398   2.397       .  S
Zr2392     O2418   2.436       .  S
Zr2392     O2419   2.437       .  S
Zr2392     O2394   2.439       .  S
Zr2392     O2395   2.394       .  S
Zr2392     O2396   2.375       .  S
O2393      H2430   0.990       .  S
O2394      H2425   0.991       .  S
O2394      H2439   0.990       .  S
O2396      H2422   0.963       .  S
O2397     Zr2407   2.388       .  S
O2398     Zr2407   2.377       .  S
O2398      H2423   0.966       .  S
C2399      C4364   1.436       .  S
C2400      C4456   1.435       .  S
C2401      C4361   1.435       .  S
O2402      H2438   0.990       .  S
O2403      C2405   1.277       .  A
O2404      C2405   1.286       .  A
C2405      C4367   1.426       .  S
O2406     Zr2407   2.440       .  S
O2406      H2435   0.990       .  S
Zr2407     O2410   2.439       .  S
Zr2407     O2411   2.441       .  S
Zr2407     O2412   2.398       .  S
O2408      C2413   1.288       .  A
O2409      H2426   0.990       .  S
O2409      H2441   0.990       .  S
O2410      H2427   0.990       .  S
O2411      H2431   0.990       .  S
O2411      H2440   0.989       .  S
O2412      C2413   1.275       .  A
C2413      C4365   1.439       .  S
O2414      H2433   0.991       .  S
O2414      H2437   0.990       .  S
O2415      H2429   0.990       .  S
O2415      H2436   0.990       .  S
O2416      C2420   1.284       .  A
O2417      C2420   1.284       .  A
O2418      H2428   0.990       .  S
O2419      H2432   0.990       .  S
C2420      C4379   1.441       .  S
Zr2443     O2444   2.442       .  S
Zr2443     O2445   2.463       .  S
Zr2443     O2446   2.478       .  S
Zr2443     O2449   2.424       .  S
Zr2443     O2451   2.379       .  S
Zr2443     O2452   2.394       .  S
Zr2443     O2453   2.408       .  S
Zr2443     O2454   2.414       .  S
O2444      H2500   0.990       .  S
O2444      H2508   0.991       .  S
O2445      C2465   1.288       .  A
O2446      C2467   1.290       .  A
O2447     Zr2457   2.432       .  S
O2447      C2466   1.284       .  A
O2448     Zr2456   2.410       .  S
O2448      C2467   1.278       .  A
O2449      C2466   1.281       .  A
O2450     Zr2458   2.398       .  S
O2450      C2465   1.275       .  A
O2451     Zr2456   2.400       .  S
O2451     Zr2458   2.392       .  S
O2452     Zr2457   2.395       .  S
O2452     Zr2458   2.371       .  S
O2452      H2487   0.966       .  S
O2453     Zr2456   2.399       .  S
O2453     Zr2473   2.372       .  S
O2453      H2490   0.963       .  S
O2454     Zr2457   2.389       .  S
O2454     Zr2473   2.386       .  S
Zr2455     O2480   2.441       .  S
Zr2455     O2474   2.460       .  S
Zr2455     O2482   2.441       .  S
Zr2455     O2470   2.459       .  S
Zr2455     O2461   2.410       .  S
Zr2455     O2462   2.414       .  S
Zr2455     O2463   2.374       .  S
Zr2455     O2464   2.387       .  S
Zr2456     O2475   2.436       .  S
Zr2456     O2468   2.435       .  S
Zr2456     O2469   2.410       .  S
Zr2456     O2462   2.399       .  S
Zr2456     O2463   2.395       .  S
Zr2457     O2459   2.436       .  S
Zr2457     O2481   2.439       .  S
Zr2457     O2483   2.432       .  S
Zr2457     O2461   2.391       .  S
Zr2457     O2464   2.396       .  S
Zr2458     O2484   2.436       .  S
Zr2458     O2485   2.436       .  S
Zr2458     O2460   2.437       .  S
Zr2458     O2461   2.391       .  S
Zr2458     O2462   2.374       .  S
O2459      H2496   0.990       .  S
O2460      H2491   0.991       .  S
O2460      H2505   0.990       .  S
O2462      H2488   0.963       .  S
O2463     Zr2473   2.388       .  S
O2464     Zr2473   2.377       .  S
O2464      H2489   0.966       .  S
C2465      C4366   1.438       .  S
C2466      C4450   1.430       .  S
C2467      C4357   1.437       .  S
O2468      H2504   0.990       .  S
O2469      C2471   1.278       .  A
O2470      C2471   1.286       .  A
C2471      C4360   1.427       .  S
O2472     Zr2473   2.440       .  S
O2472      H2501   0.990       .  S
Zr2473     O2476   2.437       .  S
Zr2473     O2477   2.442       .  S
Zr2473     O2478   2.393       .  S
O2474      C2479   1.287       .  A
O2475      H2492   0.990       .  S
O2475      H2507   0.990       .  S
O2476      H2493   0.990       .  S
O2477      H2497   0.990       .  S
O2477      H2506   0.989       .  S
O2478      C2479   1.274       .  A
C2479      C4363   1.435       .  S
O2480      H2499   0.991       .  S
O2480      H2503   0.990       .  S
O2481      H2495   0.990       .  S
O2481      H2502   0.990       .  S
O2482      C2486   1.285       .  A
O2483      C2486   1.283       .  A
O2484      H2494   0.990       .  S
O2485      H2498   0.990       .  S
C2486      C4371   1.440       .  S
Zr2509     O2510   2.442       .  S
Zr2509     O2511   2.465       .  S
Zr2509     O2512   2.472       .  S
Zr2509     O2515   2.423       .  S
Zr2509     O2517   2.379       .  S
Zr2509     O2518   2.390       .  S
Zr2509     O2519   2.410       .  S
Zr2509     O2520   2.416       .  S
O2510      H2566   0.990       .  S
O2510      H2574   0.991       .  S
O2511      C2531   1.288       .  A
O2512      C2533   1.288       .  A
O2513     Zr2523   2.440       .  S
O2513      C2532   1.285       .  A
O2514     Zr2522   2.407       .  S
O2514      C2533   1.277       .  A
O2515      C2532   1.281       .  A
O2516     Zr2524   2.400       .  S
O2516      C2531   1.275       .  A
O2517     Zr2522   2.401       .  S
O2517     Zr2524   2.392       .  S
O2518     Zr2523   2.394       .  S
O2518     Zr2524   2.372       .  S
O2518      H2553   0.967       .  S
O2519     Zr2522   2.400       .  S
O2519     Zr2539   2.376       .  S
O2519      H2556   0.963       .  S
O2520     Zr2523   2.388       .  S
O2520     Zr2539   2.389       .  S
Zr2521     O2546   2.441       .  S
Zr2521     O2540   2.457       .  S
Zr2521     O2548   2.437       .  S
Zr2521     O2536   2.456       .  S
Zr2521     O2527   2.410       .  S
Zr2521     O2528   2.412       .  S
Zr2521     O2529   2.375       .  S
Zr2521     O2530   2.389       .  S
Zr2522     O2541   2.436       .  S
Zr2522     O2534   2.435       .  S
Zr2522     O2535   2.410       .  S
Zr2522     O2528   2.398       .  S
Zr2522     O2529   2.396       .  S
Zr2523     O2525   2.434       .  S
Zr2523     O2547   2.437       .  S
Zr2523     O2549   2.430       .  S
Zr2523     O2527   2.392       .  S
Zr2523     O2530   2.397       .  S
Zr2524     O2550   2.435       .  S
Zr2524     O2551   2.436       .  S
Zr2524     O2526   2.439       .  S
Zr2524     O2527   2.392       .  S
Zr2524     O2528   2.374       .  S
O2525      H2562   0.990       .  S
O2526      H2557   0.991       .  S
O2526      H2571   0.990       .  S
O2528      H2554   0.964       .  S
O2529     Zr2539   2.390       .  S
O2530     Zr2539   2.376       .  S
O2530      H2555   0.966       .  S
C2531      C4354   1.439       .  S
C2532      C4349   1.433       .  S
C2533      C4352   1.432       .  S
O2534      H2570   0.990       .  S
O2535      C2537   1.278       .  A
O2536      C2537   1.286       .  A
C2537      C4368   1.426       .  S
O2538     Zr2539   2.441       .  S
O2538      H2567   0.990       .  S
Zr2539     O2542   2.439       .  S
Zr2539     O2543   2.444       .  S
Zr2539     O2544   2.397       .  S
O2540      C2545   1.286       .  A
O2541      H2558   0.990       .  S
O2541      H2573   0.990       .  S
O2542      H2559   0.990       .  S
O2543      H2563   0.990       .  S
O2543      H2572   0.990       .  S
O2544      C2545   1.274       .  A
C2545      C4356   1.434       .  S
O2546      H2565   0.991       .  S
O2546      H2569   0.990       .  S
O2547      H2561   0.990       .  S
O2547      H2568   0.990       .  S
O2548      C2552   1.284       .  A
O2549      C2552   1.283       .  A
O2550      H2560   0.990       .  S
O2551      H2564   0.990       .  S
C2552      C4397   1.437       .  S
Zr2575     O2576   2.443       .  S
Zr2575     O2577   2.459   1_556  S
Zr2575     O2578   2.473       .  S
Zr2575     O2581   2.422       .  S
Zr2575     O2583   2.377       .  S
Zr2575     O2584   2.390       .  S
Zr2575     O2585   2.406       .  S
Zr2575     O2586   2.413       .  S
O2576      H2632   0.990   1_556  S
O2576      H2640   0.991       .  S
O2577      C2597   1.286       .  A
O2578      C2599   1.289       .  A
O2579     Zr2589   2.431       .  S
O2579      C2598   1.283       .  A
O2580     Zr2588   2.408       .  S
O2580      C2599   1.278       .  A
O2581      C2598   1.280       .  A
O2582     Zr2590   2.391   1_554  S
O2582      C2597   1.273       .  A
O2583     Zr2588   2.401       .  S
O2583     Zr2590   2.391       .  S
O2584     Zr2589   2.393       .  S
O2584     Zr2590   2.373       .  S
O2584      H2619   0.966       .  S
O2585     Zr2588   2.400       .  S
O2585     Zr2605   2.373       .  S
O2585      H2622   0.963       .  S
O2586     Zr2589   2.387       .  S
O2586     Zr2605   2.390       .  S
Zr2587     O2612   2.443       .  S
Zr2587     O2606   2.465       .  S
Zr2587     O2614   2.439       .  S
Zr2587     O2602   2.459       .  S
Zr2587     O2593   2.411       .  S
Zr2587     O2594   2.412       .  S
Zr2587     O2595   2.373       .  S
Zr2587     O2596   2.387       .  S
Zr2588     O2607   2.436       .  S
Zr2588     O2600   2.436       .  S
Zr2588     O2601   2.408       .  S
Zr2588     O2594   2.403       .  S
Zr2588     O2595   2.394       .  S
Zr2589     O2591   2.434       .  S
Zr2589     O2613   2.438       .  S
Zr2589     O2615   2.424       .  S
Zr2589     O2593   2.393       .  S
Zr2589     O2596   2.395       .  S
Zr2590     O2616   2.436   1_556  S
Zr2590     O2617   2.435       .  S
Zr2590     O2592   2.439       .  S
Zr2590     O2593   2.391       .  S
Zr2590     O2594   2.374       .  S
O2591      H2628   0.990       .  S
O2592      H2623   0.990   1_556  S
O2592      H2637   0.990   1_556  S
O2594      H2620   0.963       .  S
O2595     Zr2605   2.386       .  S
O2596     Zr2605   2.376       .  S
O2596      H2621   0.966       .  S
C2597      C4355   1.433       .  S
C2598      C4345   1.429       .  S
C2599      C4348   1.433       .  S
O2600      H2636   0.990       .  S
O2601      C2603   1.278       .  A
O2602      C2603   1.286       .  A
C2603      C4359   1.427       .  S
O2604     Zr2605   2.438       .  S
O2604      H2633   0.990       .  S
Zr2605     O2608   2.439       .  S
Zr2605     O2609   2.443       .  S
Zr2605     O2610   2.397       .  S
O2606      C2611   1.288       .  A
O2607      H2624   0.990       .  S
O2607      H2639   0.990       .  S
O2608      H2625   0.990       .  S
O2609      H2629   0.990       .  S
O2609      H2638   0.989       .  S
O2610      C2611   1.274       .  A
C2611      C4353   1.439       .  S
O2612      H2631   0.991       .  S
O2612      H2635   0.990       .  S
O2613      H2627   0.990       .  S
O2613      H2634   0.990       .  S
O2614      C2618   1.284       .  A
O2615      C2618   1.282       .  A
O2616      H2626   0.990   1_554  S
O2617      H2630   0.990       .  S
C2618      C4386   1.435       .  S
Zr2641     O2642   2.443       .  S
Zr2641     O2643   2.459       .  S
Zr2641     O2644   2.472       .  S
Zr2641     O2647   2.427       .  S
Zr2641     O2649   2.380       .  S
Zr2641     O2650   2.388       .  S
Zr2641     O2651   2.409       .  S
Zr2641     O2652   2.414       .  S
O2642      H2698   0.990       .  S
O2642      H2706   0.991       .  S
O2643      C2663   1.286       .  A
O2644      C2665   1.289       .  A
O2645     Zr2655   2.434       .  S
O2645      C2664   1.284       .  A
O2646     Zr2654   2.409       .  S
O2646      C2665   1.278       .  A
O2647      C2664   1.281       .  A
O2648     Zr2656   2.395       .  S
O2648      C2663   1.273       .  A
O2649     Zr2654   2.402       .  S
O2649     Zr2656   2.393       .  S
O2650     Zr2655   2.394       .  S
O2650     Zr2656   2.369       .  S
O2650      H2685   0.966       .  S
O2651     Zr2654   2.396       .  S
O2651     Zr2671   2.371       .  S
O2651      H2688   0.963       .  S
O2652     Zr2655   2.389       .  S
O2652     Zr2671   2.388       .  S
Zr2653     O2678   2.442       .  S
Zr2653     O2672   2.462       .  S
Zr2653     O2680   2.438       .  S
Zr2653     O2668   2.460       .  S
Zr2653     O2659   2.409       .  S
Zr2653     O2660   2.412       .  S
Zr2653     O2661   2.375       .  S
Zr2653     O2662   2.388       .  S
Zr2654     O2673   2.436       .  S
Zr2654     O2666   2.434       .  S
Zr2654     O2667   2.408       .  S
Zr2654     O2660   2.401       .  S
Zr2654     O2661   2.393       .  S
Zr2655     O2657   2.434       .  S
Zr2655     O2679   2.439       .  S
Zr2655     O2681   2.428       .  S
Zr2655     O2659   2.393       .  S
Zr2655     O2662   2.397       .  S
Zr2656     O2682   2.437       .  S
Zr2656     O2683   2.435       .  S
Zr2656     O2658   2.438       .  S
Zr2656     O2659   2.390       .  S
Zr2656     O2660   2.373       .  S
O2657      H2694   0.990       .  S
O2658      H2689   0.991       .  S
O2658      H2703   0.990       .  S
O2660      H2686   0.963       .  S
O2661     Zr2671   2.388       .  S
O2662     Zr2671   2.377       .  S
O2662      H2687   0.966       .  S
C2663      C4339   1.434       .  S
C2664      C4431   1.432       .  S
C2665      C4374   1.433       .  S
O2666      H2702   0.990       .  S
O2667      C2669   1.278       .  A
O2668      C2669   1.287       .  A
C2669      C4343   1.426       .  S
O2670     Zr2671   2.441       .  S
O2670      H2699   0.990       .  S
Zr2671     O2674   2.438       .  S
Zr2671     O2675   2.440       .  S
Zr2671     O2676   2.401       .  S
O2672      C2677   1.288       .  A
O2673      H2690   0.990       .  S
O2673      H2705   0.990       .  S
O2674      H2691   0.990       .  S
O2675      H2695   0.990       .  S
O2675      H2704   0.989       .  S
O2676      C2677   1.276       .  A
C2677      C4337   1.439       .  S
O2678      H2697   0.991       .  S
O2678      H2701   0.990       .  S
O2679      H2693   0.990       .  S
O2679      H2700   0.990       .  S
O2680      C2684   1.284       .  A
O2681      C2684   1.283       .  A
O2682      H2692   0.990       .  S
O2683      H2696   0.990       .  S
C2684      C4341   1.437       .  S
Zr2707     O2708   2.443       .  S
Zr2707     O2709   2.463       .  S
Zr2707     O2710   2.481       .  S
Zr2707     O2713   2.432       .  S
Zr2707     O2715   2.379       .  S
Zr2707     O2716   2.391       .  S
Zr2707     O2717   2.412       .  S
Zr2707     O2718   2.415       .  S
O2708      H2764   0.990       .  S
O2708      H2772   0.991       .  S
O2709      C2729   1.287       .  A
O2710      C2731   1.291       .  A
O2711     Zr2721   2.431       .  S
O2711      C2730   1.284       .  A
O2712     Zr2720   2.411       .  S
O2712      C2731   1.279       .  A
O2713      C2730   1.282       .  A
O2714     Zr2722   2.400       .  S
O2714      C2729   1.275       .  A
O2715     Zr2720   2.400       .  S
O2715     Zr2722   2.392       .  S
O2716     Zr2721   2.396       .  S
O2716     Zr2722   2.370       .  S
O2716      H2751   0.966       .  S
O2717     Zr2720   2.399       .  S
O2717     Zr2737   2.370   1_556  S
O2717      H2754   0.963       .  S
O2718     Zr2721   2.389       .  S
O2718     Zr2737   2.386   1_556  S
Zr2719     O2744   2.441       .  S
Zr2719     O2738   2.458       .  S
Zr2719     O2746   2.432       .  S
Zr2719     O2734   2.459       .  S
Zr2719     O2725   2.411   1_554  S
Zr2719     O2726   2.411   1_554  S
Zr2719     O2727   2.374       .  S
Zr2719     O2728   2.387       .  S
Zr2720     O2739   2.434   1_556  S
Zr2720     O2732   2.435       .  S
Zr2720     O2733   2.408   1_556  S
Zr2720     O2726   2.398       .  S
Zr2720     O2727   2.395   1_556  S
Zr2721     O2723   2.435   1_556  S
Zr2721     O2745   2.436       .  S
Zr2721     O2747   2.432   1_556  S
Zr2721     O2725   2.392       .  S
Zr2721     O2728   2.394   1_556  S
Zr2722     O2748   2.436       .  S
Zr2722     O2749   2.436       .  S
Zr2722     O2724   2.438       .  S
Zr2722     O2725   2.393       .  S
Zr2722     O2726   2.375       .  S
O2723      H2760   0.990       .  S
O2724      H2755   0.991       .  S
O2724      H2769   0.990       .  S
O2726      H2752   0.963       .  S
O2727     Zr2737   2.390       .  S
O2728     Zr2737   2.377       .  S
O2728      H2753   0.966       .  S
C2729      C4338   1.439       .  S
C2730      C4425   1.432       .  S
C2731      C4370   1.437       .  S
O2732      H2768   0.990       .  S
O2733      C2735   1.278       .  A
O2734      C2735   1.286       .  A
C2735      C4335   1.427       .  S
O2736     Zr2737   2.441       .  S
O2736      H2765   0.990       .  S
Zr2737     O2740   2.439       .  S
Zr2737     O2741   2.442       .  S
Zr2737     O2742   2.397       .  S
O2738      C2743   1.287       .  A
O2739      H2756   0.990       .  S
O2739      H2771   0.990       .  S
O2740      H2757   0.990       .  S
O2741      H2761   0.990       .  S
O2741      H2770   0.989       .  S
O2742      C2743   1.275       .  A
C2743      C4340   1.435       .  S
O2744      H2763   0.991       .  S
O2744      H2767   0.990       .  S
O2745      H2759   0.990       .  S
O2745      H2766   0.990       .  S
O2746      C2750   1.283       .  A
O2747      C2750   1.283       .  A
O2748      H2758   0.990       .  S
O2749      H2762   0.990       .  S
C2750      C4333   1.436       .  S
Zr2773     O2774   2.443       .  S
Zr2773     O2775   2.463       .  S
Zr2773     O2776   2.477       .  S
Zr2773     O2779   2.426       .  S
Zr2773     O2781   2.375       .  S
Zr2773     O2782   2.391       .  S
Zr2773     O2783   2.408       .  S
Zr2773     O2784   2.415       .  S
O2774      H2830   0.990       .  S
O2774      H2838   0.991       .  S
O2775      C2795   1.287       .  A
O2776      C2797   1.290       .  A
O2777     Zr2787   2.431       .  S
O2777      C2796   1.284       .  A
O2778     Zr2786   2.410       .  S
O2778      C2797   1.278       .  A
O2779      C2796   1.282       .  A
O2780     Zr2788   2.398       .  S
O2780      C2795   1.274       .  A
O2781     Zr2786   2.400       .  S
O2781     Zr2788   2.392       .  S
O2782     Zr2787   2.395       .  S
O2782     Zr2788   2.369       .  S
O2782      H2817   0.966       .  S
O2783     Zr2786   2.398       .  S
O2783     Zr2803   2.375       .  S
O2783      H2820   0.963       .  S
O2784     Zr2787   2.391       .  S
O2784     Zr2803   2.389       .  S
Zr2785     O2810   2.440       .  S
Zr2785     O2804   2.458   1_554  S
Zr2785     O2812   2.437       .  S
Zr2785     O2800   2.458       .  S
Zr2785     O2791   2.408       .  S
Zr2785     O2792   2.411       .  S
Zr2785     O2793   2.374       .  S
Zr2785     O2794   2.387       .  S
Zr2786     O2805   2.435       .  S
Zr2786     O2798   2.436       .  S
Zr2786     O2799   2.409       .  S
Zr2786     O2792   2.401       .  S
Zr2786     O2793   2.395       .  S
Zr2787     O2789   2.436       .  S
Zr2787     O2811   2.439       .  S
Zr2787     O2813   2.432       .  S
Zr2787     O2791   2.390       .  S
Zr2787     O2794   2.397       .  S
Zr2788     O2814   2.436       .  S
Zr2788     O2815   2.436       .  S
Zr2788     O2790   2.435       .  S
Zr2788     O2791   2.389       .  S
Zr2788     O2792   2.374       .  S
O2789      H2826   0.990       .  S
O2790      H2821   0.990       .  S
O2790      H2835   0.990       .  S
O2792      H2818   0.964       .  S
O2793     Zr2803   2.390       .  S
O2794     Zr2803   2.378       .  S
O2794      H2819   0.965       .  S
C2795      C4330   1.438       .  S
C2796      C4326   1.431       .  S
C2797      C4392   1.436       .  S
O2798      H2834   0.990       .  S
O2799      C2801   1.278       .  A
O2800      C2801   1.286       .  A
C2801      C4336   1.427       .  S
O2802     Zr2803   2.441       .  S
O2802      H2831   0.990       .  S
Zr2803     O2806   2.438       .  S
Zr2803     O2807   2.444       .  S
Zr2803     O2808   2.398   1_554  S
O2804      C2809   1.287       .  A
O2805      H2822   0.990       .  S
O2805      H2837   0.990       .  S
O2806      H2823   0.990   1_554  S
O2807      H2827   0.990   1_554  S
O2807      H2836   0.989       .  S
O2808      C2809   1.275       .  A
C2809      C4328   1.435       .  S
O2810      H2829   0.991       .  S
O2810      H2833   0.990   1_554  S
O2811      H2825   0.990       .  S
O2811      H2832   0.990       .  S
O2812      C2816   1.283       .  A
O2813      C2816   1.283       .  A
O2814      H2824   0.990       .  S
O2815      H2828   0.990       .  S
C2816      C4332   1.438       .  S
Zr2839     O2840   2.443       .  S
Zr2839     O2841   2.460       .  S
Zr2839     O2842   2.478       .  S
Zr2839     O2845   2.426       .  S
Zr2839     O2847   2.378       .  S
Zr2839     O2848   2.390       .  S
Zr2839     O2849   2.409       .  S
Zr2839     O2850   2.414       .  S
O2840      H2896   0.990       .  S
O2840      H2904   0.991       .  S
O2841      C2861   1.287       .  A
O2842      C2863   1.290       .  A
O2843     Zr2853   2.431       .  S
O2843      C2862   1.284       .  A
O2844     Zr2852   2.412       .  S
O2844      C2863   1.278       .  A
O2845      C2862   1.281       .  A
O2846     Zr2854   2.396       .  S
O2846      C2861   1.274       .  A
O2847     Zr2852   2.400       .  S
O2847     Zr2854   2.393       .  S
O2848     Zr2853   2.394       .  S
O2848     Zr2854   2.371       .  S
O2848      H2883   0.966       .  S
O2849     Zr2852   2.397       .  S
O2849     Zr2869   2.374       .  S
O2849      H2886   0.963       .  S
O2850     Zr2853   2.388       .  S
O2850     Zr2869   2.388       .  S
Zr2851     O2876   2.441       .  S
Zr2851     O2870   2.463       .  S
Zr2851     O2878   2.438       .  S
Zr2851     O2866   2.456       .  S
Zr2851     O2857   2.409       .  S
Zr2851     O2858   2.412       .  S
Zr2851     O2859   2.373       .  S
Zr2851     O2860   2.386       .  S
Zr2852     O2871   2.435       .  S
Zr2852     O2864   2.434       .  S
Zr2852     O2865   2.404       .  S
Zr2852     O2858   2.400       .  S
Zr2852     O2859   2.394       .  S
Zr2853     O2855   2.434       .  S
Zr2853     O2877   2.439       .  S
Zr2853     O2879   2.431       .  S
Zr2853     O2857   2.392       .  S
Zr2853     O2860   2.395       .  S
Zr2854     O2880   2.437       .  S
Zr2854     O2881   2.437       .  S
Zr2854     O2856   2.437       .  S
Zr2854     O2857   2.390       .  S
Zr2854     O2858   2.376       .  S
O2855      H2892   0.990       .  S
O2856      H2887   0.991       .  S
O2856      H2901   0.990       .  S
O2858      H2884   0.964       .  S
O2859     Zr2869   2.387       .  S
O2860     Zr2869   2.378       .  S
O2860      H2885   0.965       .  S
C2861      C4327   1.435       .  S
C2862      C4321   1.429       .  S
C2863      C4384   1.437       .  S
O2864      H2900   0.990       .  S
O2865      C2867   1.277       .  A
O2866      C2867   1.286       .  A
C2867      C4344   1.425       .  S
O2868     Zr2869   2.440       .  S
O2868      H2897   0.990       .  S
Zr2869     O2872   2.438       .  S
Zr2869     O2873   2.442       .  S
Zr2869     O2874   2.400       .  S
O2870      C2875   1.288       .  A
O2871      H2888   0.990       .  S
O2871      H2903   0.990       .  S
O2872      H2889   0.990       .  S
O2873      H2893   0.990       .  S
O2873      H2902   0.989       .  S
O2874      C2875   1.275       .  A
C2875      C4329   1.439       .  S
O2876      H2895   0.991       .  S
O2876      H2899   0.989       .  S
O2877      H2891   0.990       .  S
O2877      H2898   0.990       .  S
O2878      C2882   1.284       .  A
O2879      C2882   1.283       .  A
O2880      H2890   0.990       .  S
O2881      H2894   0.990       .  S
C2882      C4323   1.437       .  S
Zr2905     O2906   2.441       .  S
Zr2905     O2907   2.464       .  S
Zr2905     O2908   2.474       .  S
Zr2905     O2911   2.426       .  S
Zr2905     O2913   2.378       .  S
Zr2905     O2914   2.391       .  S
Zr2905     O2915   2.409       .  S
Zr2905     O2916   2.414       .  S
O2906      H2962   0.990       .  S
O2906      H2970   0.991       .  S
O2907      C2927   1.288       .  A
O2908      C2929   1.290       .  A
O2909     Zr2919   2.437       .  S
O2909      C2928   1.284       .  A
O2910     Zr2918   2.411       .  S
O2910      C2929   1.278       .  A
O2911      C2928   1.281       .  A
O2912     Zr2920   2.398       .  S
O2912      C2927   1.275       .  A
O2913     Zr2918   2.400       .  S
O2913     Zr2920   2.392       .  S
O2914     Zr2919   2.394       .  S
O2914     Zr2920   2.373       .  S
O2914      H2949   0.965       .  S
O2915     Zr2918   2.399       .  S
O2915     Zr2935   2.376       .  S
O2915      H2952   0.963       .  S
O2916     Zr2919   2.388       .  S
O2916     Zr2935   2.389       .  S
Zr2917     O2942   2.441       .  S
Zr2917     O2936   2.456   1_554  S
Zr2917     O2944   2.439       .  S
Zr2917     O2932   2.463       .  S
Zr2917     O2923   2.409       .  S
Zr2917     O2924   2.410       .  S
Zr2917     O2925   2.375       .  S
Zr2917     O2926   2.389       .  S
Zr2918     O2937   2.436       .  S
Zr2918     O2930   2.435       .  S
Zr2918     O2931   2.412       .  S
Zr2918     O2924   2.397       .  S
Zr2918     O2925   2.396       .  S
Zr2919     O2921   2.434       .  S
Zr2919     O2943   2.439       .  S
Zr2919     O2945   2.427       .  S
Zr2919     O2923   2.393       .  S
Zr2919     O2926   2.397       .  S
Zr2920     O2946   2.436       .  S
Zr2920     O2947   2.435       .  S
Zr2920     O2922   2.439       .  S
Zr2920     O2923   2.389       .  S
Zr2920     O2924   2.371       .  S
O2921      H2958   0.990       .  S
O2922      H2953   0.990       .  S
O2922      H2967   0.990       .  S
O2924      H2950   0.964       .  S
O2925     Zr2935   2.389       .  S
O2926     Zr2935   2.377       .  S
O2926      H2951   0.966       .  S
C2927      C4318   1.438       .  S
C2928      C4486   1.432       .  S
C2929      C4362   1.435       .  S
O2930      H2966   0.990       .  S
O2931      C2933   1.279       .  A
O2932      C2933   1.287       .  A
C2933      C4319   1.429       .  S
O2934     Zr2935   2.440       .  S
O2934      H2963   0.990       .  S
Zr2935     O2938   2.438       .  S
Zr2935     O2939   2.443       .  S
Zr2935     O2940   2.398   1_554  S
O2936      C2941   1.286       .  A
O2937      H2954   0.990       .  S
O2937      H2969   0.990       .  S
O2938      H2955   0.990   1_554  S
O2939      H2959   0.990   1_554  S
O2939      H2968   0.989       .  S
O2940      C2941   1.275       .  A
C2941      C4316   1.436       .  S
O2942      H2961   0.991       .  S
O2942      H2965   0.990   1_554  S
O2943      H2957   0.990       .  S
O2943      H2964   0.990       .  S
O2944      C2948   1.284       .  A
O2945      C2948   1.282       .  A
O2946      H2956   0.990       .  S
O2947      H2960   0.990       .  S
C2948      C4334   1.436       .  S
Zr2971     O2972   2.442       .  S
Zr2971     O2973   2.461       .  S
Zr2971     O2974   2.480       .  S
Zr2971     O2977   2.424       .  S
Zr2971     O2979   2.377       .  S
Zr2971     O2980   2.394       .  S
Zr2971     O2981   2.408       .  S
Zr2971     O2982   2.417       .  S
O2972      H3028   0.990       .  S
O2972      H3036   0.991       .  S
O2973      C2993   1.287       .  A
O2974      C2995   1.290       .  A
O2975     Zr2985   2.436       .  S
O2975      C2994   1.285       .  A
O2976     Zr2984   2.410       .  S
O2976      C2995   1.278       .  A
O2977      C2994   1.281       .  A
O2978     Zr2986   2.399       .  S
O2978      C2993   1.275       .  A
O2979     Zr2984   2.398       .  S
O2979     Zr2986   2.395       .  S
O2980     Zr2985   2.395       .  S
O2980     Zr2986   2.371       .  S
O2980      H3015   0.966       .  S
O2981     Zr2984   2.398       .  S
O2981     Zr3001   2.373       .  S
O2981      H3018   0.963       .  S
O2982     Zr2985   2.389       .  S
O2982     Zr3001   2.388       .  S
Zr2983     O3008   2.443       .  S
Zr2983     O3002   2.462       .  S
Zr2983     O3010   2.433       .  S
Zr2983     O2998   2.459       .  S
Zr2983     O2989   2.411       .  S
Zr2983     O2990   2.410       .  S
Zr2983     O2991   2.375       .  S
Zr2983     O2992   2.389       .  S
Zr2984     O3003   2.436       .  S
Zr2984     O2996   2.434       .  S
Zr2984     O2997   2.405       .  S
Zr2984     O2990   2.397       .  S
Zr2984     O2991   2.397       .  S
Zr2985     O2987   2.435       .  S
Zr2985     O3009   2.439       .  S
Zr2985     O3011   2.435       .  S
Zr2985     O2989   2.391       .  S
Zr2985     O2992   2.394       .  S
Zr2986     O3012   2.436       .  S
Zr2986     O3013   2.435       .  S
Zr2986     O2988   2.437       .  S
Zr2986     O2989   2.389       .  S
Zr2986     O2990   2.372       .  S
O2987      H3024   0.990       .  S
O2988      H3019   0.991       .  S
O2988      H3033   0.989       .  S
O2990      H3016   0.963       .  S
O2991     Zr3001   2.390       .  S
O2992     Zr3001   2.375       .  S
O2992      H3017   0.967       .  S
C2993      C4315   1.436       .  S
C2994      C4477   1.431       .  S
C2995      C4358   1.437       .  S
O2996      H3032   0.990       .  S
O2997      C2999   1.277       .  A
O2998      C2999   1.286       .  A
C2999      C4314   1.426       .  S
O3000     Zr3001   2.440       .  S
O3000      H3029   0.990       .  S
Zr3001     O3004   2.437       .  S
Zr3001     O3005   2.443       .  S
Zr3001     O3006   2.400       .  S
O3002      C3007   1.287       .  A
O3003      H3020   0.990       .  S
O3003      H3035   0.990       .  S
O3004      H3021   0.990       .  S
O3005      H3025   0.990       .  S
O3005      H3034   0.989       .  S
O3006      C3007   1.275       .  A
C3007      C4317   1.439       .  S
O3008      H3027   0.991       .  S
O3008      H3031   0.989       .  S
O3009      H3023   0.990       .  S
O3009      H3030   0.990       .  S
O3010      C3014   1.283       .  A
O3011      C3014   1.284       .  A
O3012      H3022   0.990       .  S
O3013      H3026   0.990       .  S
C3014      C4342   1.437       .  S
Zr3037     O3038   2.442       .  S
Zr3037     O3039   2.465       .  S
Zr3037     O3040   2.473       .  S
Zr3037     O3043   2.429       .  S
Zr3037     O3045   2.377       .  S
Zr3037     O3046   2.390       .  S
Zr3037     O3047   2.410       .  S
Zr3037     O3048   2.415       .  S
O3038      H3094   0.990       .  S
O3038      H3102   0.991       .  S
O3039      C3059   1.287       .  A
O3040      C3061   1.289       .  A
O3041     Zr3051   2.438       .  S
O3041      C3060   1.285       .  A
O3042     Zr3050   2.410       .  S
O3042      C3061   1.278       .  A
O3043      C3060   1.282       .  A
O3044     Zr3052   2.401       .  S
O3044      C3059   1.275       .  A
O3045     Zr3050   2.401       .  S
O3045     Zr3052   2.392       .  S
O3046     Zr3051   2.394       .  S
O3046     Zr3052   2.372       .  S
O3046      H3081   0.966       .  S
O3047     Zr3050   2.396       .  S
O3047     Zr3067   2.370       .  S
O3047      H3084   0.963       .  S
O3048     Zr3051   2.390       .  S
O3048     Zr3067   2.389       .  S
Zr3049     O3074   2.444       .  S
Zr3049     O3068   2.456       .  S
Zr3049     O3076   2.434       .  S
Zr3049     O3064   2.455       .  S
Zr3049     O3055   2.408       .  S
Zr3049     O3056   2.410       .  S
Zr3049     O3057   2.375       .  S
Zr3049     O3058   2.390       .  S
Zr3050     O3069   2.436       .  S
Zr3050     O3062   2.435       .  S
Zr3050     O3063   2.411       .  S
Zr3050     O3056   2.399       .  S
Zr3050     O3057   2.395       .  S
Zr3051     O3053   2.435       .  S
Zr3051     O3075   2.437       .  S
Zr3051     O3077   2.432       .  S
Zr3051     O3055   2.391       .  S
Zr3051     O3058   2.396       .  S
Zr3052     O3078   2.436       .  S
Zr3052     O3079   2.435       .  S
Zr3052     O3054   2.436       .  S
Zr3052     O3055   2.390       .  S
Zr3052     O3056   2.374       .  S
O3053      H3090   0.990       .  S
O3054      H3085   0.990       .  S
O3054      H3099   0.990       .  S
O3056      H3082   0.963       .  S
O3057     Zr3067   2.390       .  S
O3058     Zr3067   2.373       .  S
O3058      H3083   0.966       .  S
C3059      C4311   1.440       .  S
C3060      C4308   1.434       .  S
C3061      C4351   1.432       .  S
O3062      H3098   0.990       .  S
O3063      C3065   1.279       .  A
O3064      C3065   1.285       .  A
C3065      C4313   1.427       .  S
O3066     Zr3067   2.439       .  S
O3066      H3095   0.990       .  S
Zr3067     O3070   2.438       .  S
Zr3067     O3071   2.440       .  S
Zr3067     O3072   2.397       .  S
O3068      C3073   1.286       .  A
O3069      H3086   0.990       .  S
O3069      H3101   0.990       .  S
O3070      H3087   0.990       .  S
O3071      H3091   0.990       .  S
O3071      H3100   0.990       .  S
O3072      C3073   1.274       .  A
C3073      C4310   1.434       .  S
O3074      H3093   0.991       .  S
O3074      H3097   0.990       .  S
O3075      H3089   0.990       .  S
O3075      H3096   0.990       .  S
O3076      C3080   1.283       .  A
O3077      C3080   1.283       .  A
O3078      H3088   0.990       .  S
O3079      H3092   0.990       .  S
C3080      C4324   1.437       .  S
Zr3103     O3104   2.443       .  S
Zr3103     O3105   2.457       .  S
Zr3103     O3106   2.469       .  S
Zr3103     O3109   2.424       .  S
Zr3103     O3111   2.377       .  S
Zr3103     O3112   2.390       .  S
Zr3103     O3113   2.411       .  S
Zr3103     O3114   2.415       .  S
O3104      H3160   0.990       .  S
O3104      H3168   0.991       .  S
O3105      C3125   1.286       .  A
O3106      C3127   1.288       .  A
O3107     Zr3117   2.436       .  S
O3107      C3126   1.284       .  A
O3108     Zr3116   2.411       .  S
O3108      C3127   1.278       .  A
O3109      C3126   1.281       .  A
O3110     Zr3118   2.396       .  S
O3110      C3125   1.274       .  A
O3111     Zr3116   2.398       .  S
O3111     Zr3118   2.390       .  S
O3112     Zr3117   2.392       .  S
O3112     Zr3118   2.371       .  S
O3112      H3147   0.966       .  S
O3113     Zr3116   2.398       .  S
O3113     Zr3133   2.376   1_556  S
O3113      H3150   0.963       .  S
O3114     Zr3117   2.390       .  S
O3114     Zr3133   2.389   1_556  S
Zr3115     O3140   2.442       .  S
Zr3115     O3134   2.461       .  S
Zr3115     O3142   2.438       .  S
Zr3115     O3130   2.459       .  S
Zr3115     O3121   2.410   1_554  S
Zr3115     O3122   2.410   1_554  S
Zr3115     O3123   2.376       .  S
Zr3115     O3124   2.392       .  S
Zr3116     O3135   2.434   1_556  S
Zr3116     O3128   2.435       .  S
Zr3116     O3129   2.410   1_556  S
Zr3116     O3122   2.398       .  S
Zr3116     O3123   2.395   1_556  S
Zr3117     O3119   2.435   1_556  S
Zr3117     O3141   2.439       .  S
Zr3117     O3143   2.432   1_556  S
Zr3117     O3121   2.391       .  S
Zr3117     O3124   2.399   1_556  S
Zr3118     O3144   2.438       .  S
Zr3118     O3145   2.435       .  S
Zr3118     O3120   2.436       .  S
Zr3118     O3121   2.391       .  S
Zr3118     O3122   2.370       .  S
O3119      H3156   0.990       .  S
O3120      H3151   0.990       .  S
O3120      H3165   0.990       .  S
O3122      H3148   0.963       .  S
O3123     Zr3133   2.388       .  S
O3124     Zr3133   2.376       .  S
O3124      H3149   0.966       .  S
C3125      C4309   1.434       .  S
C3126      C4305   1.432       .  S
C3127      C4347   1.433       .  S
O3128      H3164   0.990       .  S
O3129      C3131   1.279       .  A
O3130      C3131   1.286       .  A
C3131      C4320   1.428       .  S
O3132     Zr3133   2.438       .  S
O3132      H3161   0.990       .  S
Zr3133     O3136   2.438       .  S
Zr3133     O3137   2.439       .  S
Zr3133     O3138   2.403       .  S
O3134      C3139   1.287       .  A
O3135      H3152   0.990       .  S
O3135      H3167   0.990       .  S
O3136      H3153   0.990       .  S
O3137      H3157   0.990       .  S
O3137      H3166   0.990       .  S
O3138      C3139   1.276       .  A
C3139      C4312   1.440       .  S
O3140      H3159   0.991       .  S
O3140      H3163   0.990       .  S
O3141      H3155   0.990       .  S
O3141      H3162   0.990       .  S
O3142      C3146   1.284       .  A
O3143      C3146   1.283       .  A
O3144      H3154   0.990       .  S
O3145      H3158   0.990       .  S
C3146      C4331   1.438       .  S
Zr3169     O3170   2.443       .  S
Zr3169     O3171   2.450       .  S
Zr3169     O3172   2.453       .  S
Zr3169     O3175   2.448       .  S
Zr3169     O3177   2.385       .  S
Zr3169     O3178   2.388       .  S
Zr3169     O3179   2.413       .  S
Zr3169     O3180   2.399       .  S
O3170      H3226   0.990       .  S
O3170      H3234   0.991       .  S
O3171      C3191   1.285       .  A
O3172      C3193   1.285       .  A
O3173     Zr3183   2.421       .  S
O3173      C3192   1.281       .  A
O3174     Zr3182   2.433       .  S
O3174      C3193   1.282       .  A
O3175      C3192   1.286       .  A
O3176     Zr3184   2.413       .  S
O3176      C3191   1.278       .  A
O3177     Zr3182   2.399       .  S
O3177     Zr3184   2.383       .  S
O3178     Zr3183   2.395       .  S
O3178     Zr3184   2.386       .  S
O3178      H3213   0.965       .  S
O3179     Zr3182   2.404       .  S
O3179     Zr3199   2.396       .  S
O3179      H3216   0.965       .  S
O3180     Zr3183   2.385       .  S
O3180     Zr3199   2.383       .  S
Zr3181     O3206   2.444   1_554  S
Zr3181     O3200   2.450   1_554  S
Zr3181     O3208   2.457       .  S
Zr3181     O3196   2.426       .  S
Zr3181     O3187   2.388       .  S
Zr3181     O3188   2.420       .  S
Zr3181     O3189   2.380       .  S
Zr3181     O3190   2.383       .  S
Zr3182     O3201   2.436       .  S
Zr3182     O3194   2.436       .  S
Zr3182     O3195   2.431       .  S
Zr3182     O3188   2.401       .  S
Zr3182     O3189   2.395       .  S
Zr3183     O3185   2.437       .  S
Zr3183     O3207   2.439       .  S
Zr3183     O3209   2.423       .  S
Zr3183     O3187   2.379       .  S
Zr3183     O3190   2.397       .  S
Zr3184     O3210   2.436       .  S
Zr3184     O3211   2.436       .  S
Zr3184     O3186   2.436       .  S
Zr3184     O3187   2.379       .  S
Zr3184     O3188   2.398       .  S
O3185      H3222   0.990       .  S
O3186      H3217   0.990       .  S
O3186      H3231   0.990       .  S
O3188      H3214   0.965       .  S
O3189     Zr3199   2.375       .  S
O3190     Zr3199   2.389       .  S
O3190      H3215   0.966       .  S
C3191      C4299   1.438       .  S
C3192      C4303   1.433       .  S
C3193      C4301   1.441       .  S
O3194      H3230   0.990       .  S
O3195      C3197   1.283       .  A
O3196      C3197   1.280       .  A
C3197      C4574   1.429   1_554  S
O3198     Zr3199   2.439       .  S
O3198      H3227   0.990       .  S
Zr3199     O3202   2.437   1_554  S
Zr3199     O3203   2.440   1_554  S
Zr3199     O3204   2.411   1_554  S
O3200      C3205   1.285       .  A
O3201      H3218   0.990       .  S
O3201      H3233   0.990       .  S
O3202      H3219   0.990       .  S
O3203      H3223   0.990       .  S
O3203      H3232   0.990   1_556  S
O3204      C3205   1.277       .  A
C3205      C4298   1.438       .  S
O3206      H3225   0.990   1_556  S
O3206      H3229   0.991       .  S
O3207      H3221   0.990       .  S
O3207      H3228   0.990       .  S
O3208      C3212   1.287       .  A
O3209      C3212   1.281       .  A
O3210      H3220   0.990       .  S
O3211      H3224   0.990       .  S
C3212      C4295   1.438       .  S
Zr3235     O3236   2.441       .  S
Zr3235     O3237   2.455       .  S
Zr3235     O3238   2.460       .  S
Zr3235     O3241   2.443       .  S
Zr3235     O3243   2.381       .  S
Zr3235     O3244   2.388       .  S
Zr3235     O3245   2.412       .  S
Zr3235     O3246   2.401       .  S
O3236      H3292   0.990       .  S
O3236      H3300   0.991       .  S
O3237      C3257   1.285       .  A
O3238      C3259   1.286       .  A
O3239     Zr3249   2.413       .  S
O3239      C3258   1.280       .  A
O3240     Zr3248   2.432       .  S
O3240      C3259   1.282       .  A
O3241      C3258   1.285       .  A
O3242     Zr3250   2.410       .  S
O3242      C3257   1.277       .  A
O3243     Zr3248   2.399       .  S
O3243     Zr3250   2.382       .  S
O3244     Zr3249   2.397       .  S
O3244     Zr3250   2.384       .  S
O3244      H3279   0.965       .  S
O3245     Zr3248   2.403       .  S
O3245     Zr3265   2.393       .  S
O3245      H3282   0.965       .  S
O3246     Zr3249   2.386       .  S
O3246     Zr3265   2.382       .  S
Zr3247     O3272   2.443       .  S
Zr3247     O3266   2.451       .  S
Zr3247     O3274   2.456       .  S
Zr3247     O3262   2.427       .  S
Zr3247     O3253   2.390       .  S
Zr3247     O3254   2.417       .  S
Zr3247     O3255   2.380       .  S
Zr3247     O3256   2.384       .  S
Zr3248     O3267   2.438       .  S
Zr3248     O3260   2.435       .  S
Zr3248     O3261   2.429       .  S
Zr3248     O3254   2.403       .  S
Zr3248     O3255   2.394       .  S
Zr3249     O3251   2.437       .  S
Zr3249     O3273   2.440       .  S
Zr3249     O3275   2.421       .  S
Zr3249     O3253   2.382       .  S
Zr3249     O3256   2.396       .  S
Zr3250     O3276   2.437       .  S
Zr3250     O3277   2.435       .  S
Zr3250     O3252   2.438       .  S
Zr3250     O3253   2.383       .  S
Zr3250     O3254   2.398       .  S
O3251      H3288   0.990       .  S
O3252      H3283   0.990       .  S
O3252      H3297   0.990       .  S
O3254      H3280   0.965       .  S
O3255     Zr3265   2.375       .  S
O3256     Zr3265   2.391       .  S
O3256      H3281   0.966       .  S
C3257      C4297   1.438       .  S
C3258      C4293   1.428       .  S
C3259      C4291   1.443       .  S
O3260      H3296   0.990       .  S
O3261      C3263   1.282       .  A
O3262      C3263   1.280       .  A
C3263      C4579   1.428       .  S
O3264     Zr3265   2.438       .  S
O3264      H3293   0.990       .  S
Zr3265     O3268   2.437       .  S
Zr3265     O3269   2.440       .  S
Zr3265     O3270   2.410       .  S
O3266      C3271   1.285       .  A
O3267      H3284   0.990       .  S
O3267      H3299   0.990       .  S
O3268      H3285   0.990       .  S
O3269      H3289   0.990       .  S
O3269      H3298   0.990       .  S
O3270      C3271   1.277       .  A
C3271      C4300   1.438       .  S
O3272      H3291   0.990       .  S
O3272      H3295   0.991       .  S
O3273      H3287   0.990       .  S
O3273      H3294   0.990       .  S
O3274      C3278   1.287       .  A
O3275      C3278   1.281       .  A
O3276      H3286   0.990       .  S
O3277      H3290   0.990       .  S
C3278      C4290   1.436       .  S
Zr3301     O3302   2.442       .  S
Zr3301     O3303   2.451       .  S
Zr3301     O3304   2.452       .  S
Zr3301     O3307   2.444       .  S
Zr3301     O3309   2.384       .  S
Zr3301     O3310   2.384       .  S
Zr3301     O3311   2.411       .  S
Zr3301     O3312   2.397       .  S
O3302      H3358   0.990       .  S
O3302      H3366   0.991       .  S
O3303      C3323   1.285       .  A
O3304      C3325   1.285       .  A
O3305     Zr3315   2.424       .  S
O3305      C3324   1.282       .  A
O3306     Zr3314   2.431       .  S
O3306      C3325   1.282       .  A
O3307      C3324   1.285       .  A
O3308     Zr3316   2.412       .  S
O3308      C3323   1.277       .  A
O3309     Zr3314   2.400       .  S
O3309     Zr3316   2.380       .  S
O3310     Zr3315   2.395       .  S
O3310     Zr3316   2.385       .  S
O3310      H3345   0.965       .  S
O3311     Zr3314   2.403       .  S
O3311     Zr3331   2.392       .  S
O3311      H3348   0.965       .  S
O3312     Zr3315   2.385       .  S
O3312     Zr3331   2.382       .  S
Zr3313     O3338   2.443       .  S
Zr3313     O3332   2.452       .  S
Zr3313     O3340   2.455       .  S
Zr3313     O3328   2.431       .  S
Zr3313     O3319   2.388       .  S
Zr3313     O3320   2.418       .  S
Zr3313     O3321   2.379       .  S
Zr3313     O3322   2.383       .  S
Zr3314     O3333   2.437       .  S
Zr3314     O3326   2.435       .  S
Zr3314     O3327   2.434       .  S
Zr3314     O3320   2.400       .  S
Zr3314     O3321   2.394       .  S
Zr3315     O3317   2.437       .  S
Zr3315     O3339   2.440       .  S
Zr3315     O3341   2.419       .  S
Zr3315     O3319   2.382       .  S
Zr3315     O3322   2.398       .  S
Zr3316     O3342   2.434       .  S
Zr3316     O3343   2.437       .  S
Zr3316     O3318   2.437       .  S
Zr3316     O3319   2.382       .  S
Zr3316     O3320   2.397       .  S
O3317      H3354   0.990       .  S
O3318      H3349   0.990       .  S
O3318      H3363   0.990       .  S
O3320      H3346   0.965       .  S
O3321     Zr3331   2.378       .  S
O3322     Zr3331   2.390       .  S
O3322      H3347   0.966       .  S
C3323      C4286   1.436       .  S
C3324      C4304   1.433       .  S
C3325      C4288   1.441       .  S
O3326      H3362   0.990       .  S
O3327      C3329   1.284       .  A
O3328      C3329   1.281       .  A
C3329      C4307   1.433       .  S
O3330     Zr3331   2.439       .  S
O3330      H3359   0.990       .  S
Zr3331     O3334   2.437       .  S
Zr3331     O3335   2.440       .  S
Zr3331     O3336   2.413       .  S
O3332      C3337   1.285       .  A
O3333      H3350   0.990       .  S
O3333      H3365   0.990       .  S
O3334      H3351   0.990       .  S
O3335      H3355   0.990       .  S
O3335      H3364   0.990       .  S
O3336      C3337   1.278       .  A
C3337      C4284   1.439       .  S
O3338      H3357   0.990       .  S
O3338      H3361   0.991       .  S
O3339      H3353   0.990       .  S
O3339      H3360   0.990       .  S
O3340      C3344   1.287       .  A
O3341      C3344   1.280       .  A
O3342      H3352   0.990       .  S
O3343      H3356   0.990       .  S
C3344      C4281   1.436       .  S
Zr3367     O3368   2.441       .  S
Zr3367     O3369   2.454       .  S
Zr3367     O3370   2.456       .  S
Zr3367     O3373   2.442       .  S
Zr3367     O3375   2.384       .  S
Zr3367     O3376   2.389       .  S
Zr3367     O3377   2.413       .  S
Zr3367     O3378   2.400       .  S
O3368      H3424   0.990       .  S
O3368      H3432   0.991       .  S
O3369      C3389   1.286       .  A
O3370      C3391   1.286       .  A
O3371     Zr3381   2.419       .  S
O3371      C3390   1.280       .  A
O3372     Zr3380   2.428       .  S
O3372      C3391   1.281       .  A
O3373      C3390   1.284       .  A
O3374     Zr3382   2.416       .  S
O3374      C3389   1.279       .  A
O3375     Zr3380   2.399       .  S
O3375     Zr3382   2.382       .  S
O3376     Zr3381   2.397       .  S
O3376     Zr3382   2.387       .  S
O3376      H3411   0.965       .  S
O3377     Zr3380   2.404       .  S
O3377     Zr3397   2.393       .  S
O3377      H3414   0.965       .  S
O3378     Zr3381   2.385       .  S
O3378     Zr3397   2.384       .  S
Zr3379     O3404   2.442       .  S
Zr3379     O3398   2.449       .  S
Zr3379     O3406   2.454       .  S
Zr3379     O3394   2.429       .  S
Zr3379     O3385   2.391       .  S
Zr3379     O3386   2.417       .  S
Zr3379     O3387   2.381       .  S
Zr3379     O3388   2.383       .  S
Zr3380     O3399   2.436       .  S
Zr3380     O3392   2.435       .  S
Zr3380     O3393   2.434       .  S
Zr3380     O3386   2.398       .  S
Zr3380     O3387   2.395       .  S
Zr3381     O3383   2.437       .  S
Zr3381     O3405   2.440       .  S
Zr3381     O3407   2.416       .  S
Zr3381     O3385   2.381       .  S
Zr3381     O3388   2.397       .  S
Zr3382     O3408   2.436       .  S
Zr3382     O3409   2.435       .  S
Zr3382     O3384   2.437       .  S
Zr3382     O3385   2.380       .  S
Zr3382     O3386   2.394       .  S
O3383      H3420   0.990       .  S
O3384      H3415   0.990       .  S
O3384      H3429   0.990       .  S
O3386      H3412   0.964       .  S
O3387     Zr3397   2.378       .  S
O3388     Zr3397   2.389       .  S
O3388      H3413   0.966       .  S
C3389      C4283   1.439       .  S
C3390      C4294   1.429       .  S
C3391      C4280   1.439       .  S
O3392      H3428   0.990       .  S
O3393      C3395   1.283       .  A
O3394      C3395   1.280       .  A
C3395      C4306   1.431       .  S
O3396     Zr3397   2.440       .  S
O3396      H3425   0.990       .  S
Zr3397     O3400   2.438       .  S
Zr3397     O3401   2.440       .  S
Zr3397     O3402   2.409       .  S
O3398      C3403   1.285       .  A
O3399      H3416   0.990       .  S
O3399      H3431   0.990       .  S
O3400      H3417   0.990       .  S
O3401      H3421   0.990       .  S
O3401      H3430   0.990       .  S
O3402      C3403   1.277       .  A
C3403      C4285   1.436       .  S
O3404      H3423   0.990       .  S
O3404      H3427   0.991       .  S
O3405      H3419   0.990       .  S
O3405      H3426   0.990       .  S
O3406      C3410   1.286       .  A
O3407      C3410   1.280       .  A
O3408      H3418   0.990       .  S
O3409      H3422   0.990       .  S
C3410      C4277   1.433       .  S
Zr3433     O3434   2.441       .  S
Zr3433     O3435   2.453       .  S
Zr3433     O3436   2.457       .  S
Zr3433     O3439   2.445       .  S
Zr3433     O3441   2.384       .  S
Zr3433     O3442   2.385       .  S
Zr3433     O3443   2.412       .  S
Zr3433     O3444   2.401       .  S
O3434      H3490   0.990       .  S
O3434      H3498   0.991       .  S
O3435      C3455   1.285       .  A
O3436      C3457   1.285       .  A
O3437     Zr3447   2.419       .  S
O3437      C3456   1.281       .  A
O3438     Zr3446   2.430       .  S
O3438      C3457   1.282       .  A
O3439      C3456   1.285       .  A
O3440     Zr3448   2.411       .  S
O3440      C3455   1.277       .  A
O3441     Zr3446   2.401       .  S
O3441     Zr3448   2.382       .  S
O3442     Zr3447   2.395       .  S
O3442     Zr3448   2.385       .  S
O3442      H3477   0.965       .  S
O3443     Zr3446   2.400       .  S
O3443     Zr3463   2.392       .  S
O3443      H3480   0.965       .  S
O3444     Zr3447   2.383       .  S
O3444     Zr3463   2.384       .  S
Zr3445     O3470   2.442       .  S
Zr3445     O3464   2.450       .  S
Zr3445     O3472   2.454       .  S
Zr3445     O3460   2.433       .  S
Zr3445     O3451   2.390       .  S
Zr3445     O3452   2.417       .  S
Zr3445     O3453   2.380       .  S
Zr3445     O3454   2.384       .  S
Zr3446     O3465   2.435       .  S
Zr3446     O3458   2.434       .  S
Zr3446     O3459   2.431       .  S
Zr3446     O3452   2.400       .  S
Zr3446     O3453   2.394       .  S
Zr3447     O3449   2.438       .  S
Zr3447     O3471   2.440       .  S
Zr3447     O3473   2.417       .  S
Zr3447     O3451   2.382       .  S
Zr3447     O3454   2.396       .  S
Zr3448     O3474   2.436       .  S
Zr3448     O3475   2.436       .  S
Zr3448     O3450   2.437       .  S
Zr3448     O3451   2.381       .  S
Zr3448     O3452   2.395       .  S
O3449      H3486   0.990       .  S
O3450      H3481   0.990       .  S
O3450      H3495   0.990       .  S
O3452      H3478   0.965       .  S
O3453     Zr3463   2.377       .  S
O3454     Zr3463   2.390       .  S
O3454      H3479   0.967       .  S
C3455      C4273   1.437       .  S
C3456      C4276   1.432       .  S
C3457      C4302   1.442       .  S
O3458      H3494   0.990       .  S
O3459      C3461   1.283       .  A
O3460      C3461   1.281       .  A
C3461      C4500   1.433       .  S
O3462     Zr3463   2.439       .  S
O3462      H3491   0.990       .  S
Zr3463     O3466   2.436       .  S
Zr3463     O3467   2.440       .  S
Zr3463     O3468   2.414       .  S
O3464      C3469   1.285       .  A
O3465      H3482   0.990       .  S
O3465      H3497   0.990       .  S
O3466      H3483   0.990       .  S
O3467      H3487   0.990       .  S
O3467      H3496   0.990       .  S
O3468      C3469   1.278       .  A
C3469      C4272   1.439       .  S
O3470      H3489   0.990       .  S
O3470      H3493   0.991       .  S
O3471      H3485   0.990       .  S
O3471      H3492   0.990       .  S
O3472      C3476   1.287       .  A
O3473      C3476   1.280       .  A
O3474      H3484   0.990       .  S
O3475      H3488   0.990       .  S
C3476      C4270   1.434       .  S
Zr3499     O3500   2.442       .  S
Zr3499     O3501   2.451       .  S
Zr3499     O3502   2.454       .  S
Zr3499     O3505   2.447       .  S
Zr3499     O3507   2.384       .  S
Zr3499     O3508   2.386       .  S
Zr3499     O3509   2.414       .  S
Zr3499     O3510   2.397       .  S
O3500      H3556   0.990       .  S
O3500      H3564   0.991       .  S
O3501      C3521   1.285       .  A
O3502      C3523   1.285       .  A
O3503     Zr3513   2.417       .  S
O3503      C3522   1.280       .  A
O3504     Zr3512   2.432       .  S
O3504      C3523   1.283       .  A
O3505      C3522   1.285       .  A
O3506     Zr3514   2.412       .  S
O3506      C3521   1.278       .  A
O3507     Zr3512   2.400       .  S
O3507     Zr3514   2.380       .  S
O3508     Zr3513   2.396       .  S
O3508     Zr3514   2.388       .  S
O3508      H3543   0.965       .  S
O3509     Zr3512   2.406       .  S
O3509     Zr3529   2.396       .  S
O3509      H3546   0.965       .  S
O3510     Zr3513   2.384       .  S
O3510     Zr3529   2.383       .  S
Zr3511     O3536   2.444       .  S
Zr3511     O3530   2.451       .  S
Zr3511     O3538   2.451       .  S
Zr3511     O3526   2.424       .  S
Zr3511     O3517   2.390       .  S
Zr3511     O3518   2.418       .  S
Zr3511     O3519   2.379       .  S
Zr3511     O3520   2.384       .  S
Zr3512     O3531   2.436       .  S
Zr3512     O3524   2.436       .  S
Zr3512     O3525   2.432       .  S
Zr3512     O3518   2.402       .  S
Zr3512     O3519   2.395       .  S
Zr3513     O3515   2.437       .  S
Zr3513     O3537   2.441       .  S
Zr3513     O3539   2.418       .  S
Zr3513     O3517   2.382       .  S
Zr3513     O3520   2.397       .  S
Zr3514     O3540   2.436       .  S
Zr3514     O3541   2.437       .  S
Zr3514     O3516   2.439       .  S
Zr3514     O3517   2.383       .  S
Zr3514     O3518   2.398       .  S
O3515      H3552   0.990       .  S
O3516      H3547   0.990       .  S
O3516      H3561   0.990       .  S
O3518      H3544   0.965       .  S
O3519     Zr3529   2.376       .  S
O3520     Zr3529   2.389       .  S
O3520      H3545   0.966       .  S
C3521      C4271   1.438       .  S
C3522      C4267   1.432       .  S
C3523      C4292   1.443       .  S
O3524      H3560   0.990       .  S
O3525      C3527   1.283       .  A
O3526      C3527   1.279       .  A
C3527      C4498   1.429       .  S
O3528     Zr3529   2.438       .  S
O3528      H3557   0.990       .  S
Zr3529     O3532   2.438       .  S
Zr3529     O3533   2.440       .  S
Zr3529     O3534   2.407       .  S
O3530      C3535   1.285       .  A
O3531      H3548   0.990       .  S
O3531      H3563   0.990       .  S
O3532      H3549   0.990       .  S
O3533      H3553   0.990       .  S
O3533      H3562   0.990       .  S
O3534      C3535   1.277       .  A
C3535      C4274   1.437       .  S
O3536      H3555   0.990       .  S
O3536      H3559   0.991       .  S
O3537      H3551   0.990       .  S
O3537      H3558   0.990       .  S
O3538      C3542   1.286       .  A
O3539      C3542   1.280       .  A
O3540      H3550   0.990       .  S
O3541      H3554   0.990       .  S
C3542      C4265   1.433       .  S
Zr3565     O3566   2.442       .  S
Zr3565     O3567   2.453       .  S
Zr3565     O3568   2.457       .  S
Zr3565     O3571   2.448       .  S
Zr3565     O3573   2.383       .  S
Zr3565     O3574   2.386       .  S
Zr3565     O3575   2.412       .  S
Zr3565     O3576   2.397       .  S
O3566      H3622   0.990       .  S
O3566      H3630   0.991       .  S
O3567      C3587   1.285       .  A
O3568      C3589   1.286       .  A
O3569     Zr3579   2.417       .  S
O3569      C3588   1.280       .  A
O3570     Zr3578   2.429       .  S
O3570      C3589   1.282       .  A
O3571      C3588   1.286       .  A
O3572     Zr3580   2.414       .  S
O3572      C3587   1.278       .  A
O3573     Zr3578   2.400       .  S
O3573     Zr3580   2.381       .  S
O3574     Zr3579   2.394       .  S
O3574     Zr3580   2.385       .  S
O3574      H3609   0.966       .  S
O3575     Zr3578   2.403       .  S
O3575     Zr3595   2.394       .  S
O3575      H3612   0.965       .  S
O3576     Zr3579   2.382       .  S
O3576     Zr3595   2.381       .  S
Zr3577     O3602   2.440   1_554  S
Zr3577     O3596   2.450   1_554  S
Zr3577     O3604   2.459       .  S
Zr3577     O3592   2.431       .  S
Zr3577     O3583   2.390       .  S
Zr3577     O3584   2.418       .  S
Zr3577     O3585   2.379       .  S
Zr3577     O3586   2.383       .  S
Zr3578     O3597   2.436       .  S
Zr3578     O3590   2.435       .  S
Zr3578     O3591   2.430       .  S
Zr3578     O3584   2.400       .  S
Zr3578     O3585   2.393       .  S
Zr3579     O3581   2.435       .  S
Zr3579     O3603   2.439       .  S
Zr3579     O3605   2.422       .  S
Zr3579     O3583   2.380       .  S
Zr3579     O3586   2.396       .  S
Zr3580     O3606   2.435       .  S
Zr3580     O3607   2.436       .  S
Zr3580     O3582   2.438       .  S
Zr3580     O3583   2.383       .  S
Zr3580     O3584   2.396       .  S
O3581      H3618   0.990       .  S
O3582      H3613   0.990       .  S
O3582      H3627   0.990       .  S
O3584      H3610   0.966       .  S
O3585     Zr3595   2.376       .  S
O3586     Zr3595   2.392       .  S
O3586      H3611   0.965       .  S
C3587      C4263   1.437       .  S
C3588      C4275   1.431       .  S
C3589      C4287   1.441       .  S
O3590      H3626   0.990       .  S
O3591      C3593   1.283       .  A
O3592      C3593   1.281       .  A
C3593      C4346   1.430   1_554  S
O3594     Zr3595   2.439       .  S
O3594      H3623   0.990       .  S
Zr3595     O3598   2.438   1_554  S
Zr3595     O3599   2.440   1_554  S
Zr3595     O3600   2.406   1_554  S
O3596      C3601   1.285       .  A
O3597      H3614   0.990       .  S
O3597      H3629   0.990       .  S
O3598      H3615   0.990       .  S
O3599      H3619   0.990       .  S
O3599      H3628   0.990   1_556  S
O3600      C3601   1.276       .  A
C3601      C4261   1.436       .  S
O3602      H3621   0.990   1_556  S
O3602      H3625   0.991       .  S
O3603      H3617   0.990       .  S
O3603      H3624   0.990       .  S
O3604      C3608   1.288       .  A
O3605      C3608   1.281       .  A
O3606      H3616   0.990       .  S
O3607      H3620   0.991       .  S
C3608      C4259   1.439       .  S
Zr3631     O3632   2.444       .  S
Zr3631     O3633   2.451       .  S
Zr3631     O3634   2.451       .  S
Zr3631     O3637   2.444       .  S
Zr3631     O3639   2.384       .  S
Zr3631     O3640   2.387       .  S
Zr3631     O3641   2.416       .  S
Zr3631     O3642   2.400       .  S
O3632      H3688   0.990       .  S
O3632      H3696   0.991       .  S
O3633      C3653   1.284       .  A
O3634      C3655   1.284       .  A
O3635     Zr3645   2.421       .  S
O3635      C3654   1.281       .  A
O3636     Zr3644   2.430       .  S
O3636      C3655   1.282       .  A
O3637      C3654   1.285       .  A
O3638     Zr3646   2.413       .  S
O3638      C3653   1.277       .  A
O3639     Zr3644   2.403       .  S
O3639     Zr3646   2.381       .  S
O3640     Zr3645   2.396       .  S
O3640     Zr3646   2.384       .  S
O3640      H3675   0.966       .  S
O3641     Zr3644   2.406       .  S
O3641     Zr3661   2.396       .  S
O3641      H3678   0.965       .  S
O3642     Zr3645   2.388       .  S
O3642     Zr3661   2.386       .  S
Zr3643     O3668   2.442       .  S
Zr3643     O3662   2.448       .  S
Zr3643     O3670   2.454       .  S
Zr3643     O3658   2.428       .  S
Zr3643     O3649   2.393       .  S
Zr3643     O3650   2.419       .  S
Zr3643     O3651   2.379       .  S
Zr3643     O3652   2.383       .  S
Zr3644     O3663   2.437       .  S
Zr3644     O3656   2.435       .  S
Zr3644     O3657   2.437       .  S
Zr3644     O3650   2.401       .  S
Zr3644     O3651   2.394       .  S
Zr3645     O3647   2.437       .  S
Zr3645     O3669   2.439       .  S
Zr3645     O3671   2.424       .  S
Zr3645     O3649   2.382       .  S
Zr3645     O3652   2.398       .  S
Zr3646     O3672   2.436       .  S
Zr3646     O3673   2.435       .  S
Zr3646     O3648   2.437       .  S
Zr3646     O3649   2.385       .  S
Zr3646     O3650   2.394       .  S
O3647      H3684   0.990       .  S
O3648      H3679   0.990       .  S
O3648      H3693   0.990       .  S
O3650      H3676   0.965       .  S
O3651     Zr3661   2.377       .  S
O3652     Zr3661   2.389       .  S
O3652      H3677   0.965       .  S
C3653      C4262   1.437       .  S
C3654      C4268   1.432       .  S
C3655      C4279   1.439       .  S
O3656      H3692   0.990       .  S
O3657      C3659   1.284       .  A
O3658      C3659   1.280       .  A
C3659      C4350   1.433       .  S
O3660     Zr3661   2.440       .  S
O3660      H3689   0.991       .  S
Zr3661     O3664   2.437       .  S
Zr3661     O3665   2.438       .  S
Zr3661     O3666   2.412       .  S
O3662      C3667   1.284       .  A
O3663      H3680   0.990       .  S
O3663      H3695   0.990       .  S
O3664      H3681   0.990       .  S
O3665      H3685   0.990       .  S
O3665      H3694   0.990       .  S
O3666      C3667   1.277       .  A
C3667      C4264   1.438       .  S
O3668      H3687   0.990       .  S
O3668      H3691   0.991       .  S
O3669      H3683   0.990       .  S
O3669      H3690   0.990       .  S
O3670      C3674   1.286       .  A
O3671      C3674   1.281       .  A
O3672      H3682   0.990       .  S
O3673      H3686   0.990       .  S
C3674      C4257   1.438       .  S
Zr3697     O3698   2.444       .  S
Zr3697     O3699   2.453       .  S
Zr3697     O3700   2.455       .  S
Zr3697     O3703   2.445       .  S
Zr3697     O3705   2.383       .  S
Zr3697     O3706   2.385       .  S
Zr3697     O3707   2.414   1_556  S
Zr3697     O3708   2.399   1_556  S
O3698      H3754   0.990       .  S
O3698      H3762   0.991       .  S
O3699      C3719   1.285       .  A
O3700      C3721   1.286       .  A
O3701     Zr3711   2.417   1_556  S
O3701      C3720   1.281       .  A
O3702     Zr3710   2.431   1_556  S
O3702      C3721   1.282       .  A
O3703      C3720   1.285       .  A
O3704     Zr3712   2.412       .  S
O3704      C3719   1.277       .  A
O3705     Zr3710   2.402   1_556  S
O3705     Zr3712   2.379       .  S
O3706     Zr3711   2.396   1_556  S
O3706     Zr3712   2.382       .  S
O3706      H3741   0.965       .  S
O3707     Zr3710   2.406       .  S
O3707     Zr3727   2.392       .  S
O3707      H3744   0.965       .  S
O3708     Zr3711   2.388       .  S
O3708     Zr3727   2.385       .  S
Zr3709     O3734   2.443       .  S
Zr3709     O3728   2.447       .  S
Zr3709     O3736   2.455       .  S
Zr3709     O3724   2.424       .  S
Zr3709     O3715   2.389       .  S
Zr3709     O3716   2.418       .  S
Zr3709     O3717   2.381       .  S
Zr3709     O3718   2.382       .  S
Zr3710     O3729   2.436       .  S
Zr3710     O3722   2.435   1_554  S
Zr3710     O3723   2.436       .  S
Zr3710     O3716   2.401       .  S
Zr3710     O3717   2.395       .  S
Zr3711     O3713   2.437       .  S
Zr3711     O3735   2.439   1_554  S
Zr3711     O3737   2.424       .  S
Zr3711     O3715   2.381       .  S
Zr3711     O3718   2.396       .  S
Zr3712     O3738   2.435       .  S
Zr3712     O3739   2.436       .  S
Zr3712     O3714   2.437       .  S
Zr3712     O3715   2.384   1_556  S
Zr3712     O3716   2.396   1_556  S
O3713      H3750   0.990       .  S
O3714      H3745   0.990       .  S
O3714      H3759   0.990       .  S
O3716      H3742   0.965       .  S
O3717     Zr3727   2.378       .  S
O3718     Zr3727   2.393       .  S
O3718      H3743   0.966       .  S
C3719      C4249   1.440       .  S
C3720      C4255   1.431       .  S
C3721      C4253   1.441       .  S
O3722      H3758   0.990       .  S
O3723      C3725   1.283       .  A
O3724      C3725   1.279       .  A
C3725      C4549   1.430       .  S
O3726     Zr3727   2.441       .  S
O3726      H3755   0.990       .  S
Zr3727     O3730   2.438       .  S
Zr3727     O3731   2.439       .  S
Zr3727     O3732   2.409       .  S
O3728      C3733   1.284       .  A
O3729      H3746   0.990       .  S
O3729      H3761   0.990       .  S
O3730      H3747   0.990       .  S
O3731      H3751   0.990       .  S
O3731      H3760   0.990       .  S
O3732      C3733   1.277       .  A
C3733      C4251   1.435       .  S
O3734      H3753   0.990       .  S
O3734      H3757   0.991       .  S
O3735      H3749   0.990       .  S
O3735      H3756   0.990       .  S
O3736      C3740   1.287       .  A
O3737      C3740   1.281       .  A
O3738      H3748   0.990       .  S
O3739      H3752   0.990       .  S
C3740      C4296   1.439       .  S
Zr3763     O3764   2.442       .  S
Zr3763     O3765   2.445       .  S
Zr3763     O3766   2.455       .  S
Zr3763     O3769   2.451       .  S
Zr3763     O3771   2.386       .  S
Zr3763     O3772   2.387       .  S
Zr3763     O3773   2.412       .  S
Zr3763     O3774   2.394       .  S
O3764      H3820   0.990       .  S
O3764      H3828   0.991       .  S
O3765      C3785   1.284       .  A
O3766      C3787   1.286       .  A
O3767     Zr3777   2.418       .  S
O3767      C3786   1.280       .  A
O3768     Zr3776   2.437       .  S
O3768      C3787   1.284       .  A
O3769      C3786   1.286       .  A
O3770     Zr3778   2.413       .  S
O3770      C3785   1.278       .  A
O3771     Zr3776   2.400       .  S
O3771     Zr3778   2.382       .  S
O3772     Zr3777   2.395       .  S
O3772     Zr3778   2.387       .  S
O3772      H3807   0.965       .  S
O3773     Zr3776   2.403       .  S
O3773     Zr3793   2.394       .  S
O3773      H3810   0.965       .  S
O3774     Zr3777   2.381       .  S
O3774     Zr3793   2.381       .  S
Zr3775     O3800   2.442       .  S
Zr3775     O3794   2.456       .  S
Zr3775     O3802   2.459       .  S
Zr3775     O3790   2.434       .  S
Zr3775     O3781   2.391       .  S
Zr3775     O3782   2.419       .  S
Zr3775     O3783   2.381       .  S
Zr3775     O3784   2.382       .  S
Zr3776     O3795   2.437       .  S
Zr3776     O3788   2.434       .  S
Zr3776     O3789   2.433       .  S
Zr3776     O3782   2.401       .  S
Zr3776     O3783   2.396       .  S
Zr3777     O3779   2.435       .  S
Zr3777     O3801   2.438       .  S
Zr3777     O3803   2.417       .  S
Zr3777     O3781   2.381       .  S
Zr3777     O3784   2.397       .  S
Zr3778     O3804   2.436       .  S
Zr3778     O3805   2.436       .  S
Zr3778     O3780   2.438       .  S
Zr3778     O3781   2.382       .  S
Zr3778     O3782   2.398       .  S
O3779      H3816   0.990       .  S
O3780      H3811   0.990       .  S
O3780      H3825   0.990       .  S
O3782      H3808   0.965       .  S
O3783     Zr3793   2.377       .  S
O3784     Zr3793   2.391       .  S
O3784      H3809   0.966       .  S
C3785      C4252   1.435       .  S
C3786      C4247   1.434       .  S
C3787      C4245   1.445       .  S
O3788      H3824   0.990       .  S
O3789      C3791   1.283       .  A
O3790      C3791   1.281       .  A
C3791      C4546   1.433       .  S
O3792     Zr3793   2.439       .  S
O3792      H3821   0.990       .  S
Zr3793     O3796   2.438       .  S
Zr3793     O3797   2.439       .  S
Zr3793     O3798   2.411       .  S
O3794      C3799   1.286       .  A
O3795      H3812   0.990       .  S
O3795      H3827   0.990       .  S
O3796      H3813   0.990       .  S
O3797      H3817   0.990       .  S
O3797      H3826   0.990       .  S
O3798      C3799   1.278       .  A
C3799      C4250   1.440       .  S
O3800      H3819   0.990       .  S
O3800      H3823   0.991       .  S
O3801      H3815   0.990       .  S
O3801      H3822   0.990       .  S
O3802      C3806   1.288       .  A
O3803      C3806   1.280       .  A
O3804      H3814   0.990       .  S
O3805      H3818   0.990       .  S
C3806      C4289   1.436       .  S
Zr3829     O3830   2.441       .  S
Zr3829     O3831   2.454       .  S
Zr3829     O3832   2.456       .  S
Zr3829     O3835   2.449       .  S
Zr3829     O3837   2.386       .  S
Zr3829     O3838   2.386       .  S
Zr3829     O3839   2.414       .  S
Zr3829     O3840   2.399       .  S
O3830      H3886   0.990       .  S
O3830      H3894   0.991       .  S
O3831      C3851   1.285       .  A
O3832      C3853   1.286       .  A
O3833     Zr3843   2.419       .  S
O3833      C3852   1.281       .  A
O3834     Zr3842   2.433       .  S
O3834      C3853   1.283       .  A
O3835      C3852   1.286       .  A
O3836     Zr3844   2.411       .  S
O3836      C3851   1.278       .  A
O3837     Zr3842   2.402       .  S
O3837     Zr3844   2.382       .  S
O3838     Zr3843   2.395       .  S
O3838     Zr3844   2.386       .  S
O3838      H3873   0.966       .  S
O3839     Zr3842   2.404       .  S
O3839     Zr3859   2.395       .  S
O3839      H3876   0.964       .  S
O3840     Zr3843   2.385       .  S
O3840     Zr3859   2.386       .  S
Zr3841     O3866   2.442       .  S
Zr3841     O3860   2.453       .  S
Zr3841     O3868   2.457       .  S
Zr3841     O3856   2.430       .  S
Zr3841     O3847   2.390       .  S
Zr3841     O3848   2.421       .  S
Zr3841     O3849   2.381       .  S
Zr3841     O3850   2.382       .  S
Zr3842     O3861   2.436       .  S
Zr3842     O3854   2.434       .  S
Zr3842     O3855   2.433       .  S
Zr3842     O3848   2.403       .  S
Zr3842     O3849   2.395       .  S
Zr3843     O3845   2.435       .  S
Zr3843     O3867   2.440       .  S
Zr3843     O3869   2.420       .  S
Zr3843     O3847   2.381       .  S
Zr3843     O3850   2.396       .  S
Zr3844     O3870   2.435       .  S
Zr3844     O3871   2.436       .  S
Zr3844     O3846   2.438       .  S
Zr3844     O3847   2.382       .  S
Zr3844     O3848   2.393       .  S
O3845      H3882   0.990       .  S
O3846      H3877   0.990       .  S
O3846      H3891   0.990       .  S
O3848      H3874   0.964       .  S
O3849     Zr3859   2.376       .  S
O3850     Zr3859   2.390       .  S
O3850      H3875   0.965       .  S
C3851      C4239   1.437       .  S
C3852      C4248   1.434       .  S
C3853      C4243   1.443       .  S
O3854      H3890   0.990       .  S
O3855      C3857   1.283       .  A
O3856      C3857   1.281       .  A
C3857      C4325   1.431       .  S
O3858     Zr3859   2.438       .  S
O3858      H3887   0.990       .  S
Zr3859     O3862   2.437       .  S
Zr3859     O3863   2.440       .  S
Zr3859     O3864   2.408       .  S
O3860      C3865   1.285       .  A
O3861      H3878   0.990       .  S
O3861      H3893   0.990       .  S
O3862      H3879   0.990       .  S
O3863      H3883   0.990       .  S
O3863      H3892   0.990       .  S
O3864      C3865   1.276       .  A
C3865      C4242   1.437       .  S
O3866      H3885   0.990       .  S
O3866      H3889   0.991       .  S
O3867      H3881   0.990       .  S
O3867      H3888   0.990       .  S
O3868      C3872   1.287       .  A
O3869      C3872   1.281       .  A
O3870      H3880   0.990       .  S
O3871      H3884   0.990       .  S
C3872      C4282   1.436       .  S
Zr3895     O3896   2.442       .  S
Zr3895     O3897   2.453   1_556  S
Zr3895     O3898   2.454       .  S
Zr3895     O3901   2.446       .  S
Zr3895     O3903   2.386       .  S
Zr3895     O3904   2.387       .  S
Zr3895     O3905   2.412       .  S
Zr3895     O3906   2.401       .  S
O3896      H3952   0.990       .  S
O3896      H3960   0.991       .  S
O3897      C3917   1.286       .  A
O3898      C3919   1.285       .  A
O3899     Zr3909   2.415       .  S
O3899      C3918   1.280       .  A
O3900     Zr3908   2.429       .  S
O3900      C3919   1.282       .  A
O3901      C3918   1.285       .  A
O3902     Zr3910   2.415   1_554  S
O3902      C3917   1.278       .  A
O3903     Zr3908   2.398       .  S
O3903     Zr3910   2.381       .  S
O3904     Zr3909   2.394       .  S
O3904     Zr3910   2.386       .  S
O3904      H3939   0.965       .  S
O3905     Zr3908   2.402       .  S
O3905     Zr3925   2.393       .  S
O3905      H3942   0.965       .  S
O3906     Zr3909   2.386       .  S
O3906     Zr3925   2.386       .  S
Zr3907     O3932   2.442       .  S
Zr3907     O3926   2.451       .  S
Zr3907     O3934   2.455       .  S
Zr3907     O3922   2.426       .  S
Zr3907     O3913   2.389       .  S
Zr3907     O3914   2.418       .  S
Zr3907     O3915   2.379       .  S
Zr3907     O3916   2.382       .  S
Zr3908     O3927   2.435       .  S
Zr3908     O3920   2.435       .  S
Zr3908     O3921   2.429       .  S
Zr3908     O3914   2.398       .  S
Zr3908     O3915   2.395       .  S
Zr3909     O3911   2.437       .  S
Zr3909     O3933   2.441       .  S
Zr3909     O3935   2.415       .  S
Zr3909     O3913   2.380       .  S
Zr3909     O3916   2.397       .  S
Zr3910     O3936   2.436       .  S
Zr3910     O3937   2.437       .  S
Zr3910     O3912   2.437       .  S
Zr3910     O3913   2.381       .  S
Zr3910     O3914   2.395       .  S
O3911      H3948   0.990       .  S
O3912      H3943   0.990       .  S
O3912      H3957   0.990       .  S
O3914      H3940   0.966       .  S
O3915     Zr3925   2.376       .  S
O3916     Zr3925   2.392       .  S
O3916      H3941   0.965       .  S
C3917      C4241   1.438       .  S
C3918      C4256   1.431       .  S
C3919      C4237   1.441       .  S
O3920      H3956   0.990       .  S
O3921      C3923   1.282       .  A
O3922      C3923   1.280       .  A
C3923      C4322   1.428       .  S
O3924     Zr3925   2.440       .  S
O3924      H3953   0.990       .  S
Zr3925     O3928   2.437       .  S
Zr3925     O3929   2.441       .  S
Zr3925     O3930   2.407       .  S
O3926      C3931   1.285       .  A
O3927      H3944   0.990       .  S
O3927      H3959   0.990       .  S
O3928      H3945   0.990       .  S
O3929      H3949   0.990       .  S
O3929      H3958   0.990       .  S
O3930      C3931   1.277       .  A
C3931      C4240   1.437       .  S
O3932      H3951   0.990       .  S
O3932      H3955   0.991       .  S
O3933      H3947   0.990       .  S
O3933      H3954   0.990       .  S
O3934      C3938   1.287       .  A
O3935      C3938   1.280       .  A
O3936      H3946   0.990       .  S
O3937      H3950   0.990       .  S
C3938      C4278   1.433       .  S
Zr3961     O3962   2.441       .  S
Zr3961     O3963   2.453       .  S
Zr3961     O3964   2.459       .  S
Zr3961     O3967   2.447       .  S
Zr3961     O3969   2.384       .  S
Zr3961     O3970   2.387   1_565  S
Zr3961     O3971   2.414       .  S
Zr3961     O3972   2.399       .  S
O3962      H4018   0.990       .  S
O3962      H4026   0.991       .  S
O3963      C3983   1.285   1_565  A
O3964      C3985   1.286       .  A
O3965     Zr3975   2.422       .  S
O3965      C3984   1.281   1_545  A
O3966     Zr3974   2.434       .  S
O3966      C3985   1.283       .  A
O3967      C3984   1.285       .  A
O3968     Zr3976   2.409       .  S
O3968      C3983   1.277       .  A
O3969     Zr3974   2.399       .  S
O3969     Zr3976   2.382   1_565  S
O3970     Zr3975   2.397       .  S
O3970     Zr3976   2.385       .  S
O3970      H4005   0.966       .  S
O3971     Zr3974   2.406       .  S
O3971     Zr3991   2.396       .  S
O3971      H4008   0.965       .  S
O3972     Zr3975   2.383   1_565  S
O3972     Zr3991   2.382       .  S
Zr3973     O3998   2.442       .  S
Zr3973     O3992   2.444       .  S
Zr3973     O4000   2.451       .  S
Zr3973     O3988   2.425       .  S
Zr3973     O3979   2.389       .  S
Zr3973     O3980   2.417       .  S
Zr3973     O3981   2.379   1_545  S
Zr3973     O3982   2.383       .  S
Zr3974     O3993   2.436       .  S
Zr3974     O3986   2.434       .  S
Zr3974     O3987   2.434       .  S
Zr3974     O3980   2.403   1_565  S
Zr3974     O3981   2.393       .  S
Zr3975     O3977   2.438       .  S
Zr3975     O3999   2.440       .  S
Zr3975     O4001   2.419       .  S
Zr3975     O3979   2.382       .  S
Zr3975     O3982   2.398       .  S
Zr3976     O4002   2.437       .  S
Zr3976     O4003   2.435       .  S
Zr3976     O3978   2.437       .  S
Zr3976     O3979   2.380       .  S
Zr3976     O3980   2.399       .  S
O3977      H4014   0.990       .  S
O3978      H4009   0.990       .  S
O3978      H4023   0.990   1_545  S
O3980      H4006   0.965       .  S
O3981     Zr3991   2.375       .  S
O3982     Zr3991   2.389   1_545  S
O3982      H4007   0.965       .  S
C3983      C4232   1.437       .  S
C3984      C4236   1.433       .  S
C3985      C4246   1.445       .  S
O3986      H4022   0.990       .  S
O3987      C3989   1.283       .  A
O3988      C3989   1.280   1_545  A
C3989      C4522   1.430   1_565  S
O3990     Zr3991   2.438       .  S
O3990      H4019   0.990       .  S
Zr3991     O3994   2.439       .  S
Zr3991     O3995   2.440       .  S
Zr3991     O3996   2.410       .  S
O3992      C3997   1.283       .  A
O3993      H4010   0.990       .  S
O3993      H4025   0.990       .  S
O3994      H4011   0.990       .  S
O3995      H4015   0.990   1_565  S
O3995      H4024   0.990       .  S
O3996      C3997   1.277   1_565  A
C3997      C4233   1.435       .  S
O3998      H4017   0.990       .  S
O3998      H4021   0.991       .  S
O3999      H4013   0.990       .  S
O3999      H4020   0.990       .  S
O4000      C4004   1.286       .  A
O4001      C4004   1.281       .  A
O4002      H4012   0.990       .  S
O4003      H4016   0.990       .  S
C4004      C4269   1.434       .  S
Zr4027     O4028   2.442       .  S
Zr4027     O4029   2.451   1_556  S
Zr4027     O4030   2.454       .  S
Zr4027     O4033   2.447       .  S
Zr4027     O4035   2.383       .  S
Zr4027     O4036   2.385   1_565  S
Zr4027     O4037   2.414       .  S
Zr4027     O4038   2.397       .  S
O4028      H4084   0.990       .  S
O4028      H4092   0.991       .  S
O4029      C4049   1.285   1_565  A
O4030      C4051   1.285       .  A
O4031     Zr4041   2.417       .  S
O4031      C4050   1.281   1_545  A
O4032     Zr4040   2.432       .  S
O4032      C4051   1.282       .  A
O4033      C4050   1.285       .  A
O4034     Zr4042   2.407   1_554  S
O4034      C4049   1.277       .  A
O4035     Zr4040   2.400       .  S
O4035     Zr4042   2.381   1_565  S
O4036     Zr4041   2.396       .  S
O4036     Zr4042   2.385       .  S
O4036      H4071   0.966       .  S
O4037     Zr4040   2.407       .  S
O4037     Zr4057   2.396       .  S
O4037      H4074   0.965       .  S
O4038     Zr4041   2.384   1_565  S
O4038     Zr4057   2.384       .  S
Zr4039     O4064   2.443       .  S
Zr4039     O4058   2.452       .  S
Zr4039     O4066   2.454       .  S
Zr4039     O4054   2.424       .  S
Zr4039     O4045   2.390       .  S
Zr4039     O4046   2.421       .  S
Zr4039     O4047   2.381   1_545  S
Zr4039     O4048   2.380       .  S
Zr4040     O4059   2.437       .  S
Zr4040     O4052   2.435       .  S
Zr4040     O4053   2.435       .  S
Zr4040     O4046   2.404   1_565  S
Zr4040     O4047   2.397       .  S
Zr4041     O4043   2.436       .  S
Zr4041     O4065   2.439       .  S
Zr4041     O4067   2.417       .  S
Zr4041     O4045   2.382       .  S
Zr4041     O4048   2.396       .  S
Zr4042     O4068   2.436       .  S
Zr4042     O4069   2.435       .  S
Zr4042     O4044   2.439       .  S
Zr4042     O4045   2.382       .  S
Zr4042     O4046   2.397       .  S
O4043      H4080   0.990       .  S
O4044      H4075   0.990       .  S
O4044      H4089   0.990   1_545  S
O4046      H4072   0.965       .  S
O4047     Zr4057   2.377       .  S
O4048     Zr4057   2.388   1_545  S
O4048      H4073   0.966       .  S
C4049      C4234   1.435       .  S
C4050      C4230   1.432       .  S
C4051      C4254   1.441       .  S
O4052      H4088   0.990       .  S
O4053      C4055   1.283       .  A
O4054      C4055   1.280   1_545  A
C4055      C4518   1.430   1_565  S
O4056     Zr4057   2.439       .  S
O4056      H4085   0.991       .  S
Zr4057     O4060   2.438       .  S
Zr4057     O4061   2.441       .  S
Zr4057     O4062   2.408       .  S
O4058      C4063   1.285       .  A
O4059      H4076   0.990       .  S
O4059      H4091   0.990       .  S
O4060      H4077   0.990       .  S
O4061      H4081   0.990   1_565  S
O4061      H4090   0.990       .  S
O4062      C4063   1.276   1_565  A
C4063      C4231   1.438       .  S
O4064      H4083   0.990       .  S
O4064      H4087   0.991       .  S
O4065      H4079   0.990       .  S
O4065      H4086   0.990       .  S
O4066      C4070   1.287       .  A
O4067      C4070   1.280       .  A
O4068      H4078   0.990       .  S
O4069      H4082   0.990       .  S
C4070      C4266   1.433       .  S
Zr4093     O4094   2.441       .  S
Zr4093     O4095   2.456       .  S
Zr4093     O4096   2.458       .  S
Zr4093     O4099   2.451       .  S
Zr4093     O4101   2.386       .  S
Zr4093     O4102   2.385   1_565  S
Zr4093     O4103   2.415   1_556  S
Zr4093     O4104   2.399   1_556  S
O4094      H4150   0.990       .  S
O4094      H4158   0.991       .  S
O4095      C4115   1.286   1_565  A
O4096      C4117   1.286       .  A
O4097     Zr4107   2.416   1_556  S
O4097      C4116   1.280   1_545  A
O4098     Zr4106   2.429   1_556  S
O4098      C4117   1.282       .  A
O4099      C4116   1.286       .  A
O4100     Zr4108   2.411       .  S
O4100      C4115   1.278       .  A
O4101     Zr4106   2.399   1_556  S
O4101     Zr4108   2.382   1_565  S
O4102     Zr4107   2.394   1_556  S
O4102     Zr4108   2.383       .  S
O4102      H4137   0.965       .  S
O4103     Zr4106   2.404       .  S
O4103     Zr4123   2.394       .  S
O4103      H4140   0.964       .  S
O4104     Zr4107   2.387   1_565  S
O4104     Zr4123   2.383       .  S
Zr4105     O4130   2.440       .  S
Zr4105     O4124   2.449       .  S
Zr4105     O4132   2.455       .  S
Zr4105     O4120   2.426       .  S
Zr4105     O4111   2.389       .  S
Zr4105     O4112   2.417       .  S
Zr4105     O4113   2.381   1_545  S
Zr4105     O4114   2.381       .  S
Zr4106     O4125   2.438       .  S
Zr4106     O4118   2.436   1_554  S
Zr4106     O4119   2.432       .  S
Zr4106     O4112   2.399   1_565  S
Zr4106     O4113   2.395       .  S
Zr4107     O4109   2.436       .  S
Zr4107     O4131   2.441   1_554  S
Zr4107     O4133   2.424       .  S
Zr4107     O4111   2.378       .  S
Zr4107     O4114   2.398       .  S
Zr4108     O4134   2.434       .  S
Zr4108     O4135   2.436       .  S
Zr4108     O4110   2.437       .  S
Zr4108     O4111   2.380   1_556  S
Zr4108     O4112   2.394   1_556  S
O4109      H4146   0.990       .  S
O4110      H4141   0.990       .  S
O4110      H4155   0.990   1_545  S
O4112      H4138   0.965       .  S
O4113     Zr4123   2.378       .  S
O4114     Zr4123   2.390   1_545  S
O4114      H4139   0.965       .  S
C4115      C4225   1.438       .  S
C4116      C4229   1.432       .  S
C4117      C4238   1.441       .  S
O4118      H4154   0.990       .  S
O4119      C4121   1.283       .  A
O4120      C4121   1.280   1_545  A
C4121      C4390   1.430   1_565  S
O4122     Zr4123   2.439       .  S
O4122      H4151   0.990       .  S
Zr4123     O4126   2.436       .  S
Zr4123     O4127   2.440       .  S
Zr4123     O4128   2.412       .  S
O4124      C4129   1.284       .  A
O4125      H4142   0.990       .  S
O4125      H4157   0.990       .  S
O4126      H4143   0.990       .  S
O4127      H4147   0.990   1_565  S
O4127      H4156   0.990       .  S
O4128      C4129   1.278   1_565  A
C4129      C4228   1.439       .  S
O4130      H4149   0.990       .  S
O4130      H4153   0.991       .  S
O4131      H4145   0.990       .  S
O4131      H4152   0.990       .  S
O4132      C4136   1.287       .  A
O4133      C4136   1.281       .  A
O4134      H4144   0.990       .  S
O4135      H4148   0.990       .  S
C4136      C4260   1.439       .  S
Zr4159     O4160   2.441       .  S
Zr4159     O4161   2.454       .  S
Zr4159     O4162   2.456       .  S
Zr4159     O4165   2.445       .  S
Zr4159     O4167   2.383       .  S
Zr4159     O4168   2.385   1_565  S
Zr4159     O4169   2.413       .  S
Zr4159     O4170   2.399       .  S
O4160      H4216   0.990       .  S
O4160      H4224   0.991       .  S
O4161      C4181   1.285   1_565  A
O4162      C4183   1.286       .  A
O4163     Zr4173   2.421       .  S
O4163      C4182   1.281   1_545  A
O4164     Zr4172   2.433       .  S
O4164      C4183   1.283       .  A
O4165      C4182   1.285       .  A
O4166     Zr4174   2.411       .  S
O4166      C4181   1.278       .  A
O4167     Zr4172   2.400       .  S
O4167     Zr4174   2.380   1_565  S
O4168     Zr4173   2.394       .  S
O4168     Zr4174   2.385       .  S
O4168      H4203   0.966       .  S
O4169     Zr4172   2.402       .  S
O4169     Zr4189   2.391       .  S
O4169      H4206   0.965       .  S
O4170     Zr4173   2.384   1_565  S
O4170     Zr4189   2.383       .  S
Zr4171     O4196   2.445       .  S
Zr4171     O4190   2.454       .  S
Zr4171     O4198   2.461       .  S
Zr4171     O4186   2.428       .  S
Zr4171     O4177   2.390       .  S
Zr4171     O4178   2.422       .  S
Zr4171     O4179   2.381   1_545  S
Zr4171     O4180   2.383       .  S
Zr4172     O4191   2.437       .  S
Zr4172     O4184   2.435       .  S
Zr4172     O4185   2.428       .  S
Zr4172     O4178   2.403   1_565  S
Zr4172     O4179   2.393       .  S
Zr4173     O4175   2.437       .  S
Zr4173     O4197   2.438       .  S
Zr4173     O4199   2.420       .  S
Zr4173     O4177   2.381       .  S
Zr4173     O4180   2.396       .  S
Zr4174     O4200   2.435       .  S
Zr4174     O4201   2.435       .  S
Zr4174     O4176   2.437       .  S
Zr4174     O4177   2.384       .  S
Zr4174     O4178   2.397       .  S
O4175      H4212   0.990       .  S
O4176      H4207   0.990       .  S
O4176      H4221   0.990   1_545  S
O4178      H4204   0.965       .  S
O4179     Zr4189   2.376       .  S
O4180     Zr4189   2.392   1_545  S
O4180      H4205   0.966       .  S
C4181      C4227   1.439       .  S
C4182      C4235   1.433       .  S
C4183      C4244   1.442       .  S
O4184      H4220   0.990       .  S
O4185      C4187   1.282       .  A
O4186      C4187   1.280   1_545  A
C4187      C4382   1.428   1_565  S
O4188     Zr4189   2.440       .  S
O4188      H4217   0.990       .  S
Zr4189     O4192   2.437       .  S
Zr4189     O4193   2.439       .  S
Zr4189     O4194   2.405       .  S
O4190      C4195   1.285       .  A
O4191      H4208   0.990       .  S
O4191      H4223   0.990       .  S
O4192      H4209   0.990       .  S
O4193      H4213   0.990   1_565  S
O4193      H4222   0.990       .  S
O4194      C4195   1.276   1_565  A
C4195      C4226   1.438       .  S
O4196      H4215   0.990       .  S
O4196      H4219   0.991       .  S
O4197      H4211   0.990       .  S
O4197      H4218   0.990       .  S
O4198      C4202   1.288       .  A
O4199      C4202   1.280       .  A
O4200      H4210   0.990       .  S
O4201      H4214   0.990       .  S
C4202      C4258   1.438       .  S
C4225      C4226   1.208       .  T
C4227      C4228   1.208       .  T
C4229      C4230   1.204       .  T
C4231      C4232   1.208       .  T
C4233      C4234   1.206       .  T
C4235      C4236   1.205       .  T
C4237      C4238   1.210       .  T
C4239      C4240   1.207       .  T
C4241      C4242   1.208       .  T
C4243      C4244   1.210       .  T
C4245      C4246   1.212       .  T
C4247      C4248   1.205       .  T
C4249      C4250   1.209       .  T
C4251      C4252   1.206       .  T
C4253      C4254   1.210       .  T
C4255      C4256   1.204       .  T
C4257      C4258   1.208       .  T
C4259      C4260   1.208       .  T
C4261      C4262   1.207       .  T
C4263      C4264   1.207       .  T
C4265      C4266   1.205       .  T
C4267      C4268   1.204       .  T
C4269      C4270   1.205       .  T
C4271      C4272   1.208       .  T
C4273      C4274   1.207   1_554  T
C4275      C4276   1.204       .  T
C4277      C4278   1.205       .  T
C4279      C4280   1.208       .  T
C4281      C4282   1.207       .  T
C4283      C4284   1.208       .  T
C4285      C4286   1.206   1_556  T
C4287      C4288   1.209       .  T
C4289      C4290   1.207       .  T
C4291      C4292   1.211       .  T
C4293      C4294   1.202       .  T
C4295      C4296   1.208       .  T
C4297      C4298   1.208       .  T
C4299      C4300   1.208       .  T
C4301      C4302   1.210       .  T
C4303      C4304   1.205       .  T
C4305      C4306   1.204       .  T
C4307      C4308   1.205       .  T
C4309      C4310   1.206       .  T
C4311      C4312   1.209       .  T
C4313      C4314   1.201       .  T
C4315      C4316   1.207       .  T
C4317      C4318   1.208       .  T
C4319      C4320   1.203       .  T
C4321      C4322   1.202       .  T
C4323      C4324   1.207       .  T
C4325      C4326   1.203       .  T
C4327      C4328   1.206       .  T
C4329      C4330   1.208       .  T
C4331      C4332   1.207       .  T
C4333      C4334   1.206       .  T
C4335      C4336   1.202       .  T
C4337      C4338   1.209       .  T
C4339      C4340   1.206       .  T
C4341      C4342   1.207       .  T
C4343      C4344   1.201       .  T
C4345      C4346   1.203       .  T
C4347      C4348   1.206       .  T
C4349      C4350   1.205       .  T
C4351      C4352   1.205       .  T
C4353      C4354   1.209       .  T
C4355      C4356   1.205       .  T
C4357      C4358   1.208       .  T
C4359      C4360   1.202       .  T
C4361      C4362   1.207       .  T
C4363      C4364   1.207   1_556  T
C4365      C4366   1.208       .  T
C4367      C4368   1.201       .  T
C4369      C4370   1.208       .  T
C4371      C4372   1.209       .  T
C4373      C4374   1.206       .  T
C4375      C4376   1.209       .  T
C4377      C4378   1.206       .  T
C4379      C4380   1.210       .  T
C4381      C4382   1.202       .  T
C4383      C4384   1.208       .  T
C4385      C4386   1.206       .  T
C4387      C4388   1.202       .  T
C4389      C4390   1.203       .  T
C4391      C4392   1.207       .  T
C4393      C4394   1.207   1_556  T
C4395      C4396   1.206       .  T
C4397      C4398   1.207       .  T
C4399      C4400   1.203       .  T
C4401      C4402   1.208       .  T
C4403      C4404   1.207   1_554  T
C4405      C4406   1.203   1_455  T
C4407      C4408   1.203       .  T
C4409      C4410   1.204   1_655  T
C4411      C4412   1.207       .  T
C4413      C4414   1.208       .  T
C4415      C4416   1.202       .  T
C4417      C4418   1.211       .  T
C4419      C4420   1.207       .  T
C4421      C4422   1.208       .  T
C4423      C4424   1.210       .  T
C4425      C4426   1.204   1_455  T
C4427      C4428   1.211       .  T
C4429      C4430   1.205       .  T
C4431      C4432   1.204   1_455  T
C4433      C4434   1.208       .  T
C4435      C4436   1.207   1_556  T
C4437      C4438   1.209       .  T
C4439      C4440   1.203       .  T
C4441      C4442   1.206       .  T
C4443      C4444   1.206       .  T
C4445      C4446   1.207       .  T
C4447      C4448   1.208       .  T
C4449      C4450   1.203   1_655  T
C4451      C4452   1.207       .  T
C4453      C4454   1.204       .  T
C4455      C4456   1.206   1_655  T
C4457      C4458   1.207       .  T
C4459      C4460   1.208       .  T
C4461      C4462   1.206       .  T
C4463      C4464   1.202       .  T
C4465      C4466   1.206       .  T
C4467      C4468   1.210       .  T
C4469      C4470   1.206       .  T
C4471      C4472   1.207       .  T
C4473      C4474   1.207       .  T
C4475      C4476   1.210       .  T
C4477      C4478   1.204   1_455  T
C4479      C4480   1.209       .  T
C4481      C4482   1.209       .  T
C4483      C4484   1.202       .  T
C4485      C4486   1.204   1_655  T
C4487      C4488   1.209       .  T
C4489      C4490   1.208       .  T
C4491      C4492   1.208       .  T
C4493      C4494   1.208       .  T
C4495      C4496   1.204       .  T
C4497      C4498   1.202       .  T
C4499      C4500   1.205       .  T
C4501      C4502   1.207       .  T
C4503      C4504   1.207       .  T
C4505      C4506   1.205       .  T
C4507      C4508   1.202       .  T
C4509      C4510   1.205       .  T
C4511      C4512   1.208       .  T
C4513      C4514   1.207       .  T
C4515      C4516   1.202       .  T
C4517      C4518   1.203       .  T
C4519      C4520   1.208       .  T
C4521      C4522   1.203       .  T
C4523      C4524   1.207       .  T
C4525      C4526   1.207       .  T
C4527      C4528   1.207       .  T
C4529      C4530   1.206       .  T
C4531      C4532   1.207       .  T
C4533      C4534   1.201       .  T
C4535      C4536   1.206   1_545  T
C4537      C4538   1.207       .  T
C4539      C4540   1.208       .  T
C4541      C4542   1.209       .  T
C4543      C4544   1.202       .  T
C4545      C4546   1.205       .  T
C4547      C4548   1.206       .  T
C4549      C4550   1.203       .  T
C4551      C4552   1.206       .  T
C4553      C4554   1.208   1_554  T
C4555      C4556   1.208       .  T
C4557      C4558   1.203       .  T
C4559      C4560   1.207       .  T
C4561      C4562   1.202       .  T
C4563      C4564   1.204       .  T
C4565      C4566   1.207       .  T
C4567      C4568   1.207       .  T
C4569      C4570   1.207       .  T
C4571      C4572   1.201       .  T
C4573      C4574   1.203       .  T
C4575      C4576   1.208       .  T
C4577      C4578   1.206       .  T
C4579      C4580   1.202       .  T
C4581      C4582   1.207       .  T
C4583      C4584   1.207       .  T
C4585      C4586   1.207       .  T
C4587      C4588   1.206       .  T
C4589      C4590   1.205       .  T
C4591      C4592   1.206       .  T
C4593      C4594   1.208       .  T
C4595      C4596   1.202       .  T
C4597      C4598   1.205       .  T
C4599      C4600   1.207       .  T
C4601      C4602   1.207   1_556  T
C4603      C4604   1.208       .  T
C4605      C4606   1.207       .  T
C4607      C4608   1.202       .  T
