geometry optimzed in LAMMPS
_audit_creation_date              2020-11-30 
_audit_creation_method            'lammps2cif' 
_symmetry_space_group_name_H-M    'P1' 
_symmetry_Int_Tables_number       1 
_symmetry_cell_setting            triclinic 
loop_ 
_symmetry_equiv_pos_as_xyz 
  x,y,z 
_cell_length_a                    37.67236890783908 
_cell_length_b                    41.93068942057116 
_cell_length_c                    24.52829887693116 
_cell_angle_alpha                 89.3035079764291 
_cell_angle_beta                  90.62834116621825 
_cell_angle_gamma                 91.73344559406489 
loop_ 
_atom_site_label 
_atom_site_type_symbol 
_atom_site_fract_x 
_atom_site_fract_y 
_atom_site_fract_z 
_atom_site_charge 
O1          O  0.29922771  0.37925294  0.44699474    -0.85580
O2          O  0.25448436  0.42956198  0.44870456    -0.82630
C3          C  0.27618517  0.44810949  0.42532114     0.97880
O4          O  0.28549267  0.44173959  0.37800147    -0.82660
O5          O  0.29444404  0.41252024  0.28227363    -0.85310
C6          C  0.31408996  0.38872049  0.27682891     1.02410
O7          O  0.30423279  0.36143586  0.29384500    -0.78070
O8          O  0.30121152  0.33587741  0.39615449    -0.78260
C9          C  0.31460590  0.35447478  0.43300927     1.02360
O10         O  0.24248698  0.33680448  0.45355812    -0.85580
O11         O  0.19927839  0.38676197  0.42691327    -0.82640
C12         C  0.18751651  0.41131049  0.40382693     0.97900
O13         O  0.20673801  0.42934667  0.37250191    -0.82670
O14         O  0.21709806  0.40102371  0.27617847    -0.85280
C15         C  0.20722040  0.37325452  0.26276441     1.02370
O16         O  0.22563543  0.34940342  0.27662251    -0.78100
O17         O  0.22370027  0.32184995  0.37475177    -0.78240
C18         C  0.22585842  0.31682245  0.42498909     1.02330
Cr19       Cr  0.24925870  0.38300049  0.43791016     1.93740
Cr20       Cr  0.25135863  0.41836199  0.32955639     1.93210
Cr21       Cr  0.26324043  0.34497305  0.33672891     1.39100
O22         O  0.25477595  0.38204761  0.36663847    -1.23330
O23         O  0.43969904  0.12017078  0.43153741    -0.85580
O24         O  0.47690996  0.06372972  0.44980474    -0.82630
C25         C  0.46449322  0.04434645  0.41587693     0.97880
O26         O  0.96432332  0.05228664  0.36671569    -0.82660
O27         O  0.45973664  0.09264612  0.28310939    -0.85310
C28         C  0.44462956  0.11902409  0.27531499     1.02410
O29         O  0.45895605  0.14487844  0.29143791    -0.78070
O30         O  0.45366098  0.16729764  0.39530762    -0.78260
C31         C  0.43384600  0.14949933  0.42543679     1.02360
O32         O  0.00051771  0.15461234  0.46895989    -0.85580
O33         O  0.03754403  0.09967497  0.45371054    -0.82640
C34         C  0.05485309  0.08148632  0.42369757     0.97900
O35         O  0.04160883  0.06767559  0.38137944    -0.82670
O36         O  0.03825089  0.10060570  0.28607504    -0.85280
C37         C  0.05258707  0.12788402  0.28113347     1.02370
O38         O  0.03738195  0.15195681  0.29901151    -0.78100
O39         O  0.53083021  0.17279907  0.40094532    -0.78240
C40         C  0.02111668  0.17580913  0.44931731     1.02330
Cr41       Cr  0.48884620  0.10995927  0.44453324     1.93740
Cr42       Cr  0.00059480  0.08146719  0.33246193     1.93210
Cr43       Cr  0.49514519  0.15559047  0.34759112     1.39100
O44         O  0.49554449  0.11557278  0.37396942    -1.23330
O45         O  0.03415631  0.39093016  0.99581862    -0.85580
O46         O  0.03136706  0.32571307  0.02140620    -0.82630
C47         C  0.02398059  0.30041621  0.04818949     0.97880
O48         O  0.50571064  0.30203576  0.09099130    -0.82660
O49         O  0.04474269  0.33991982  0.16287965    -0.85310
C50         C  0.05943138  0.36548256  0.18019670     1.02410
O51         O  0.04195926  0.39090757  0.17766844    -0.78070
O52         O  0.06045492  0.40719821  0.07152673    -0.78260
C53         C  0.06067835  0.40316229  0.02037382     1.02360
O54         O  0.46083491  0.39508503  0.00740355    -0.85580
O55         O  0.45735177  0.32870597  0.03008660    -0.82640
C56         C  0.43405197  0.33037654  0.06605111     0.97900
O57         O  0.44262356  0.33578350  0.11510831    -0.82670
O58         O  0.47752376  0.36734121  0.19765261    -0.85280
C59         C  0.45814771  0.39087033  0.18743584     1.02370
O60         O  0.46843280  0.41055427  0.15120117    -0.78100
O61         O  0.99221697  0.43136206  0.05221480    -0.78240
C62         C  0.46824787  0.42408042  0.01793488     1.02330
Cr63       Cr  0.99635848  0.36074673  0.01916825     1.93740
Cr64       Cr  0.49347056  0.33817321  0.13875339     1.93210
Cr65       Cr  0.01488031  0.40725531  0.11241452     1.39100
O66         O  0.00204134  0.36872793  0.08953071    -1.23330
O67         O  0.20449897  0.12539728  0.00811274    -0.85580
O68         O  0.24865449  0.17880990  0.00382819    -0.82630
C69         C  0.22750052  0.19625521  0.02759127     0.97880
O70         O  0.21978611  0.18990608  0.07612871    -0.82660
O71         O  0.21264130  0.16000446  0.17302979    -0.85310
C72         C  0.19346746  0.13523459  0.18210871     1.02410
O73         O  0.20228794  0.10850246  0.16479575    -0.78070
O74         O  0.20204762  0.08294157  0.06335653    -0.78260
C75         C  0.18830768  0.10083630  0.02634329     1.02360
O76         O  0.26109748  0.08662661  0.00188655    -0.85580
O77         O  0.30462781  0.13928121  0.02553095    -0.82640
C78         C  0.31674136  0.16424463  0.04802043     0.97900
O79         O  0.29793912  0.18125833  0.07882535    -0.82670
O80         O  0.28977043  0.15121147  0.17568626    -0.85280
C81         C  0.29843856  0.12365666  0.19080887     1.02370
O82         O  0.27931921  0.09940456  0.17792946    -0.78100
O83         O  0.27957177  0.07220551  0.08121274    -0.78240
C84         C  0.27651716  0.06683089  0.03148001     1.02330
Cr85       Cr  0.25447844  0.13244264  0.01609132     1.93740
Cr86       Cr  0.25451283  0.16769094  0.12358505     1.93210
Cr87       Cr  0.24130617  0.09372971  0.11976144     1.39100
O88         O  0.24980062  0.13123317  0.08776539    -1.23330
C89         C  0.40762112  0.11993914  0.25145603    -0.00390
C90         C  0.38705696  0.09144748  0.24613451    -0.12260
C91         C  0.35089796  0.09159591  0.23006073     0.01850
C92         C  0.33389238  0.12085492  0.21963187    -0.00480
C93         C  0.35431001  0.14922577  0.22713181    -0.12200
C94         C  0.39039773  0.14912465  0.24141448     0.01730
H95         H  0.39926520  0.06876984  0.25432838     0.14710
H96         H  0.34253439  0.17212282  0.21915764     0.14710
C97         C  0.40886441  0.17980648  0.24387223     0.36360
C98         C  0.33318634  0.06124562  0.22043758     0.36270
N99         N  0.42347427  0.20446092  0.24564961    -0.43980
N100        N  0.31963786  0.03666758  0.21199763    -0.43980
C101        C  0.08905745  0.13075439  0.25666637    -0.00390
C102        C  0.10199419  0.15983595  0.23381919    -0.12260
C103        C  0.13643694  0.16272483  0.21133990     0.01850
C104        C  0.15907167  0.13630495  0.21226372    -0.00480
C105        C  0.14660694  0.10792844  0.23729896    -0.12200
C106        C  0.11249457  0.10481300  0.25896304     0.01730
H107        H  0.08490950  0.18018280  0.23236330     0.14710
H108        H  0.16358489  0.08747825  0.23919607     0.14710
C109        C  0.10308369  0.07436006  0.28389775     0.36360
C110        C  0.14708671  0.19251523  0.18538383     0.36270
N111        N  0.09622887  0.04967123  0.30330052    -0.43980
N112        N  0.15557389  0.21640024  0.16448853    -0.43980
C113        C  0.40936034  0.16300630  0.46430777    -0.00390
C114        C  0.40787919  0.14755798  0.51516596    -0.12260
C115        C  0.37914055  0.15092975  0.04868850     0.01850
C116        C  0.35307757  0.17291487  0.03431478    -0.00480
C117        C  0.35822833  0.19305012  0.48863316    -0.12200
C118        C  0.38627318  0.18798303  0.45279752     0.01730
H119        H  0.42685026  0.12940659  0.52569773     0.14710
H120        H  0.33788273  0.20969858  0.97701373     0.14710
C121        C  0.38903105  0.20674394  0.40331009     0.36360
C122        C  0.37287316  0.12538583  0.08758133     0.36270
N123        N  0.39131788  0.22212295  0.36395061    -0.43980
N124        N  0.36856732  0.10306496  0.11502663    -0.43980
C125        C  0.09264215  0.08166771  0.43648158    -0.00390
C126        C  0.10734267  0.11249531  0.44016088    -0.12260
C127        C  0.13540858  0.11902780  0.47504331     0.01850
C128        C  0.15376338  0.09352192  0.00003237    -0.00480
C129        C  0.14105155  0.06187699  0.99244787    -0.12200
C130        C  0.10967470  0.05604615  0.46200706     0.01730
H131        H  0.09351983  0.13235920  0.42161193     0.14710
H132        H  0.15512116  0.04218941  0.01071437     0.14710
C133        C  0.09464419  0.02414187  0.45817947     0.36360
C134        C  0.14207043  0.15224962  0.48829621     0.36270
N135        N  0.08188579  0.99883733  0.45401533    -0.43980
N136        N  0.14632314  0.17888254  0.49909697    -0.43980
C137        C  0.45280951  0.01179826  0.43521268    -0.00390
C138        C  0.44262868  0.00828870  0.98990377    -0.12260
C139        C  0.44257160  0.97850783  0.01626049     0.01850
C140        C  0.45226536  0.45107712  0.98771039    -0.00480
C141        C  0.45749385  0.45374159  0.43117609    -0.12200
C142        C  0.45800110  0.48382267  0.40473898     0.01730
H143        H  0.43760397  0.02933562  0.01359949     0.14710
H144        H  0.46514952  0.43292043  0.40881133     0.14710
C145        C  0.46779805  0.48543276  0.34802653     0.36360
C146        C  0.43600737  0.97744330  0.07416153     0.36270
N147        N  0.47568077  0.48660071  0.30255563    -0.43980
N148        N  0.43098292  0.97726900  0.12061541    -0.43980
C149        C  0.02919176  0.20582065  0.48036450    -0.00390
C150        C  0.04814160  0.23143318  0.45520473    -0.12260
C151        C  0.04964823  0.26212954  0.47825511     0.01850
C152        C  0.03165206  0.26784715  0.02733960    -0.00480
C153        C  0.51597001  0.24146697  0.55493728    -0.12200
C154        C  0.51442166  0.21102104  0.53234335     0.01730
H155        H  0.06056585  0.22790360  0.41616718     0.14710
H156        H  0.50284550  0.24475873  0.09348722     0.14710
C157        C  0.49557899  0.18630581  0.56297479     0.36360
C158        C  0.06950308  0.28715578  0.95026429     0.36270
N159        N  0.48030266  0.16682334  0.58790805    -0.43980
N160        N  0.08581526  0.30704732  0.92795106    -0.43980
C161        C  0.35099794  0.39226424  0.25428221    -0.00390
C162        C  0.37857286  0.37706166  0.28274579    -0.12260
C163        C  0.41370441  0.37780179  0.26366428     0.01850
C164        C  0.42239143  0.39365638  0.21406690    -0.00480
C165        C  0.39488993  0.40959673  0.18620896    -0.12200
C166        C  0.35971181  0.40927215  0.20598674     0.01730
H167        H  0.37261378  0.36442451  0.32057101     0.14710
H168        H  0.40043205  0.42118644  0.14744170     0.14710
C169        C  0.33270030  0.42486259  0.17422853     0.36360
C170        C  0.44027012  0.36218055  0.29639305     0.36270
N171        N  0.31105665  0.43728548  0.14856382    -0.43980
N172        N  0.46147087  0.34969878  0.32287836    -0.43980
C173        C  0.17086513  0.37011465  0.23581172    -0.00390
C174        C  0.14785512  0.39571946  0.24289748    -0.12260
C175        C  0.11179485  0.39387443  0.22829953     0.01850
C176        C  0.09716540  0.36644638  0.20226204    -0.00480
C177        C  0.12011563  0.34085552  0.19377881    -0.12200
C178        C  0.15631215  0.34227232  0.21090676     0.01730
H179        H  0.15742551  0.41710617  0.26346071     0.14710
H180        H  0.10984398  0.31961879  0.17354126     0.14710
C181        C  0.17782708  0.31500677  0.20193802     0.36360
C182        C  0.09031656  0.42022806  0.24374865     0.36270
N183        N  0.19504112  0.29310346  0.19456180    -0.43980
N184        N  0.07321899  0.44126059  0.25673922    -0.43980
C185        C  0.34622073  0.34688678  0.46622301    -0.00390
C186        C  0.35501328  0.31503845  0.47673811    -0.12260
C187        C  0.38163328  0.30803695  0.01523492     0.01850
C188        C  0.39781053  0.33274993  0.04597033    -0.00480
C189        C  0.38739797  0.36403651  0.53791665    -0.12200
C190        C  0.36399097  0.37156721  0.49605141     0.01730
H191        H  0.34142602  0.29584666  0.45494524     0.14710
H192        H  0.40109693  0.38322539  0.55974063     0.14710
C193        C  0.36099394  0.40506380  0.48222950     0.36360
C194        C  0.39316259  0.27574344  0.02205664     0.36270
N195        N  0.35912848  0.43185964  0.47104981    -0.43980
N196        N  0.40331898  0.25021889  0.02868001    -0.43980
C197        C  0.15137589  0.41844440  0.41863445    -0.00390
C198        C  0.14701890  0.43896663  0.46289093    -0.12260
C199        C  0.11776508  0.43485943  0.99765174     0.01850
C200        C  0.09169118  0.41101857  0.98604693    -0.00480
C201        C  0.09483529  0.39272374  0.43885506    -0.12200
C202        C  0.12464906  0.39537362  0.40655826     0.01730
H203        H  0.16833689  0.45573488  0.47383991     0.14710
H204        H  0.07530017  0.37397222  0.42956258     0.14710
C205        C  0.12992314  0.36993026  0.36852013     0.36360
C206        C  0.11575952  0.45454286  0.04531096     0.36270
N207        N  0.13370973  0.34838149  0.34039333    -0.43980
N208        N  0.11415963  0.47040286  0.08344140    -0.43980
C209        C  0.28731646  0.47794127  0.45277845    -0.00390
C210        C  0.28479733  0.47855073  0.00982961    -0.12260
C211        C  0.28394352  0.50736518  0.03748848     0.01850
C212        C  0.28711965  0.03639547  0.00792658    -0.00480
C213        C  0.29405042  0.03565816  0.45174471    -0.12200
C214        C  0.29385908  0.00675608  0.42388450     0.01730
H215        H  0.28022060  0.45643676  0.03247974     0.14710
H216        H  0.29679876  0.05784902  0.42874913     0.14710
C217        C  0.29634017  0.00774117  0.36525844     0.36360
C218        C  0.27460787  0.50606579  0.09441992     0.36390
N219        N  0.29798044  0.00829269  0.31820649    -0.43980
N220        N  0.26638438  0.50460967  0.13971036    -0.43980
C221        C  0.21546424  0.22555588  0.99992818    -0.00390
C222        C  0.20948191  0.25259237  0.03122153    -0.12260
C223        C  0.20854922  0.28281217  0.00657161     0.01850
C224        C  0.21384159  0.28612440  0.44971921    -0.00480
C225        C  0.21430837  0.25864464  0.41780124    -0.12200
C226        C  0.21513946  0.22844569  0.44239038     0.01730
H227        H  0.20833443  0.25053652  0.07529154     0.14710
H228        H  0.21706950  0.26077970  0.37392991     0.14710
C229        C  0.21717404  0.20098418  0.40764357     0.36360
C230        C  0.20386091  0.31012444  0.04083021     0.36270
N231        N  0.21873935  0.17898981  0.37981035    -0.43980
N232        N  0.20004119  0.33204374  0.06814635    -0.43980
O233        O  0.29922930  0.37925123  0.94699699    -0.85580
O234        O  0.25448736  0.42955984  0.94870711    -0.82630
C235        C  0.27618828  0.44810732  0.92532285     0.97880
O236        O  0.28549407  0.44173818  0.87800242    -0.82660
O237        O  0.29444303  0.41252160  0.78227428    -0.85310
C238        C  0.31408896  0.38872226  0.77682780     1.02410
O239        O  0.30423200  0.36143735  0.79384318    -0.78070
O240        O  0.30121488  0.33587764  0.89615242    -0.78260
C241        C  0.31460867  0.35447464  0.93300804     1.02360
O242        O  0.24248776  0.33679815  0.95356665    -0.85580
O243        O  0.19928053  0.38675967  0.92691752    -0.82640
C244        C  0.18751915  0.41130918  0.90383350     0.97900
O245        O  0.20673990  0.42934552  0.87250793    -0.82670
O246        O  0.21709804  0.40102400  0.77618219    -0.85280
C247        C  0.20721955  0.37325498  0.76276869     1.02370
O248        O  0.22563338  0.34940313  0.77662825    -0.78100
O249        O  0.22370582  0.32184234  0.87475825    -0.78240
C250        C  0.22586253  0.31681360  0.92499634     1.02330
Cr251      Cr  0.24926042  0.38299734  0.93791389     1.93740
Cr252      Cr  0.25135898  0.41836118  0.82955986     1.93210
Cr253      Cr  0.26324169  0.34497180  0.83673073     1.39100
O254        O  0.25477664  0.38204571  0.86664163    -1.23330
O255        O  0.43974804  0.12016813  0.93165304    -0.85580
O256        O  0.47692964  0.06369881  0.94978100    -0.82630
C257        C  0.46446779  0.04433604  0.91585473     0.97880
O258        O  0.96426818  0.05229227  0.86669797    -0.82660
O259        O  0.45974510  0.09265397  0.78307430    -0.85310
C260        C  0.44463036  0.11903014  0.77531973     1.02410
O261        O  0.45894054  0.14487791  0.79149661    -0.78070
O262        O  0.45369626  0.16728606  0.89537077    -0.78260
C263        C  0.43388901  0.14949509  0.92552230     1.02360
O264        O  0.00060207  0.15456750  0.96898822    -0.85580
O265        O  0.03759562  0.09959783  0.95364512    -0.82640
C266        C  0.05486019  0.08137356  0.92362896     0.97900
O267        O  0.04157013  0.06757538  0.88133579    -0.82670
O268        O  0.03826559  0.10057410  0.78610556    -0.85280
C269        C  0.05258675  0.12785832  0.78113289     1.02370
O270        O  0.03736811  0.15193217  0.79898326    -0.78100
O271        O  0.53086249  0.17277904  0.90093764    -0.78240
C272        C  0.02116765  0.17578267  0.94932101     1.02330
Cr273      Cr  0.48889805  0.10992245  0.94454686     1.93740
Cr274      Cr  0.00057776  0.08143927  0.83244404     1.93210
Cr275      Cr  0.49515631  0.15557168  0.84761333     1.39100
O276        O  0.49555745  0.11554607  0.87397462    -1.23330
O277        O  0.03415241  0.39093378  0.49581562    -0.85580
O278        O  0.03136595  0.32571862  0.52141017    -0.82630
C279        C  0.02398071  0.30042338  0.54819798     0.97880
O280        O  0.50570934  0.30204332  0.59099739    -0.82660
O281        O  0.04474152  0.33992440  0.66288215    -0.85310
C282        C  0.05943144  0.36548697  0.68019705     1.02410
O283        O  0.04196060  0.39091261  0.67766682    -0.78070
O284        O  0.06045405  0.40720157  0.57152158    -0.78260
C285        C  0.06067529  0.40316610  0.52036816     1.02360
O286        O  0.46083157  0.39508773  0.50740582    -0.85580
O287        O  0.45735020  0.32870854  0.53009065    -0.82640
C288        C  0.43405034  0.33037987  0.56605492     0.97900
O289        O  0.44262206  0.33578866  0.61511160    -0.82670
O290        O  0.47752383  0.36734699  0.69765516    -0.85280
C291        C  0.45814774  0.39087567  0.68743723     1.02370
O292        O  0.46843319  0.41055921  0.65120207    -0.78100
O293        O  0.99221625  0.43136408  0.55221498    -0.78240
C294        C  0.46824569  0.42408286  0.51793765     1.02330
Cr295      Cr  0.99635597  0.36075024  0.51916991     1.93740
Cr296      Cr  0.49346932  0.33817888  0.63875682     1.93210
Cr297      Cr  0.01488042  0.40725935  0.61241361     1.39100
O298        O  0.00204016  0.36873233  0.58953209    -1.23330
O299        O  0.20457837  0.12548339  0.50810012    -0.85580
O300        O  0.24877328  0.17885366  0.50387280    -0.82630
C301        C  0.22759780  0.19628981  0.52760891     0.97880
O302        O  0.21984646  0.18992893  0.57612707    -0.82660
O303        O  0.21263700  0.16003196  0.67301773    -0.85310
C304        C  0.19347862  0.13525573  0.68212279     1.02410
O305        O  0.20231796  0.10852455  0.66483482    -0.78070
O306        O  0.20205159  0.08303192  0.56335280    -0.78260
C307        C  0.18834455  0.10095117  0.52634097     1.02360
O308        O  0.26112114  0.08665708  0.50188640    -0.85580
O309        O  0.30469353  0.13927914  0.52562784    -0.82640
C310        C  0.31680091  0.16424672  0.54811197     0.97900
O311        O  0.29799500  0.18126232  0.57891139    -0.82670
O312        O  0.28976033  0.15121665  0.67576899    -0.85280
C313        C  0.29844478  0.12365697  0.69084021     1.02370
O314        O  0.27934317  0.09940241  0.67791729    -0.78100
O315        O  0.27956711  0.07221132  0.58120918    -0.78240
C316        C  0.27651446  0.06684317  0.53147602     1.02330
Cr317      Cr  0.25455037  0.13247888  0.51612478     1.93740
Cr318      Cr  0.25454008  0.16770926  0.62362528     1.93210
Cr319      Cr  0.24132036  0.09375591  0.61976644     1.39100
O320        O  0.24983920  0.13125891  0.58779371    -1.23330
C321        C  0.40762788  0.11994483  0.75145114    -0.00390
C322        C  0.38706765  0.09145136  0.74612770    -0.12260
C323        C  0.35090861  0.09159749  0.73006205     0.01850
C324        C  0.33390067  0.12085599  0.71964644    -0.00480
C325        C  0.35431628  0.14922860  0.72714077    -0.12200
C326        C  0.39040446  0.14912945  0.74141219     0.01730
H327        H  0.39927820  0.06877441  0.75431838     0.14710
H328        H  0.34253923  0.17212544  0.71917053     0.14710
C329        C  0.40887185  0.17981127  0.74386008     0.36360
C330        C  0.33319807  0.06124627  0.72043979     0.36270
N331        N  0.42348079  0.20446636  0.74562908    -0.43980
N332        N  0.31964990  0.03666806  0.71199952    -0.43980
C333        C  0.08905825  0.13073864  0.75666439    -0.00390
C334        C  0.10198619  0.15982422  0.73381787    -0.12260
C335        C  0.13643088  0.16272503  0.71134518     0.01850
C336        C  0.15907796  0.13631418  0.71227404    -0.00480
C337        C  0.14662147  0.10793354  0.73730839    -0.12200
C338        C  0.11250710  0.10480607  0.75896568     0.01730
H339        H  0.08489361  0.18016553  0.73235857     0.14710
H340        H  0.16360761  0.08748908  0.73920991     0.14710
C341        C  0.10310562  0.07435025  0.78389776     0.36360
C342        C  0.14707175  0.19251795  0.68538984     0.36270
N343        N  0.09625601  0.04965996  0.80329902    -0.43980
N344        N  0.15555509  0.21640349  0.66449291    -0.43980
C345        C  0.40937117  0.16300812  0.96434361    -0.00390
C346        C  0.40786032  0.14757039  0.01520763    -0.12260
C347        C  0.37918954  0.15092622  0.54870312     0.01850
C348        C  0.35312871  0.17292386  0.53438318    -0.00480
C349        C  0.35820168  0.19303563  0.98856544    -0.12200
C350        C  0.38627511  0.18797263  0.95277917     0.01730
H351        H  0.42683518  0.12943032  0.02578434     0.14710
H352        H  0.33790844  0.20972075  0.47712130     0.14710
C353        C  0.38904954  0.20672570  0.90328579     0.36360
C354        C  0.37292760  0.12537532  0.58758756     0.36270
N355        N  0.39133955  0.22210312  0.86392499    -0.43980
N356        N  0.36860784  0.10305313  0.61502568    -0.43980
C357        C  0.09266026  0.08151062  0.93635817    -0.00390
C358        C  0.10737810  0.11233053  0.94004747    -0.12260
C359        C  0.13535281  0.11886135  0.97509653     0.01850
C360        C  0.15379386  0.09368374  0.50003419    -0.00480
C361        C  0.14105180  0.06204422  0.49252477    -0.12200
C362        C  0.10967077  0.05588293  0.96192014     0.01730
H363        H  0.09356421  0.13220713  0.92148775     0.14710
H364        H  0.15511620  0.04236018  0.51079548     0.14710
C365        C  0.09459528  0.02398980  0.95815722     0.36360
C366        C  0.14183032  0.15205397  0.98871714     0.36270
N367        N  0.08178792  0.99869973  0.95405617    -0.43980
N368        N  0.14592532  0.17865023  0.99987454    -0.43980
C369        C  0.45277898  0.01178956  0.93518898    -0.00390
C370        C  0.44265365  0.00829607  0.48992417    -0.12260
C371        C  0.44257964  0.97851246  0.51627154     0.01850
C372        C  0.45226490  0.45108088  0.48771671    -0.00480
C373        C  0.45749150  0.45373550  0.93116829    -0.12200
C374        C  0.45798486  0.48381444  0.90472368     0.01730
H375        H  0.43763374  0.02934222  0.51362451     0.14710
H376        H  0.46515624  0.43291567  0.90880798     0.14710
C377        C  0.46779061  0.48542680  0.84801534     0.36360
C378        C  0.43600911  0.97744520  0.57417042     0.36270
N379        N  0.47568194  0.48659870  0.80254833    -0.43980
N380        N  0.43097994  0.97726984  0.62062296    -0.43980
C381        C  0.02921933  0.20580565  0.98035794    -0.00390
C382        C  0.04815444  0.23142536  0.95519246    -0.12260
C383        C  0.04964889  0.26212398  0.97823884     0.01850
C384        C  0.03165142  0.26785475  0.52735435    -0.00480
C385        C  0.51597582  0.24145648  0.05492094    -0.12200
C386        C  0.51444012  0.21100796  0.03233181     0.01730
H387        H  0.06058104  0.22789784  0.91615612     0.14710
H388        H  0.50284321  0.24477036  0.59350612     0.14710
C389        C  0.49560025  0.18629188  0.06296474     0.36360
C390        C  0.06951134  0.28715711  0.45028421     0.36270
N391        N  0.48032593  0.16681028  0.08790275    -0.43980
N392        N  0.08583062  0.30704476  0.42797303    -0.43980
C393        C  0.35099700  0.39226702  0.75428110    -0.00390
C394        C  0.37857234  0.37706567  0.78274567    -0.12260
C395        C  0.41370408  0.37780672  0.76366491     0.01850
C396        C  0.42239104  0.39366114  0.71406730    -0.00480
C397        C  0.39488911  0.40960016  0.68620818    -0.12200
C398        C  0.35971080  0.40927493  0.70598544     0.01730
H399        H  0.37261340  0.36442869  0.82057113     0.14710
H400        H  0.40043106  0.42118921  0.64744034     0.14710
C401        C  0.33269930  0.42486488  0.67422649     0.36360
C402        C  0.44026997  0.36218628  0.79639451     0.36270
N403        N  0.31105600  0.43728761  0.64856076    -0.43980
N404        N  0.46147084  0.34970507  0.82288041    -0.43980
C405        C  0.17086459  0.37011647  0.73581462    -0.00390
C406        C  0.14785502  0.39572166  0.74290063    -0.12260
C407        C  0.11179484  0.39387728  0.72830186     0.01850
C408        C  0.09716529  0.36644983  0.70226284    -0.00480
C409        C  0.12011521  0.34085882  0.69377875    -0.12200
C410        C  0.15631157  0.34227491  0.71090762     0.01730
H411        H  0.15742556  0.41710788  0.76346515     0.14710
H412        H  0.10984347  0.31962259  0.67353975     0.14710
C413        C  0.17782664  0.31500963  0.70193755     0.36360
C414        C  0.09031639  0.42023059  0.74375221     0.36270
N415        N  0.19504126  0.29310680  0.69456057    -0.43980
N416        N  0.07321824  0.44126259  0.75674346    -0.43980
C417        C  0.34622395  0.34688703  0.96621979    -0.00390
C418        C  0.35501594  0.31503857  0.97673271    -0.12260
C419        C  0.38163148  0.30803826  0.51524043     0.01850
C420        C  0.39780857  0.33275213  0.54597385    -0.00480
C421        C  0.38740068  0.36403485  0.03791498    -0.12200
C422        C  0.36399387  0.37156682  0.99605008     0.01730
H423        H  0.34142840  0.29584750  0.95493848     0.14710
H424        H  0.40109986  0.38322305  0.05974035     0.14710
C425        C  0.36099652  0.40506381  0.98223073     0.36360
C426        C  0.39316308  0.27574580  0.52206496     0.36270
N427        N  0.35913116  0.43185998  0.97105329    -0.43980
N428        N  0.40332419  0.25022338  0.52869371    -0.43980
C429        C  0.15137987  0.41844380  0.91864407    -0.00390
C430        C  0.14702616  0.43896067  0.96290866    -0.12260
C431        C  0.11775619  0.43486860  0.49763209     0.01850
C432        C  0.09168648  0.41102241  0.48603740    -0.00480
C433        C  0.09483765  0.39272505  0.93885815    -0.12200
C434        C  0.12465158  0.39537558  0.90656233     0.01730
H435        H  0.16834554  0.45572665  0.97386146     0.14710
H436        H  0.07530066  0.37397621  0.92955943     0.14710
C437        C  0.12992512  0.36993335  0.86852179     0.36360
C438        C  0.11574845  0.45455608  0.54528573     0.36270
N439        N  0.13371190  0.34838488  0.84039444    -0.43980
N440        N  0.11414840  0.47041720  0.58341476    -0.43980
C441        C  0.28732400  0.47793735  0.95278140    -0.00390
C442        C  0.28478750  0.47855656  0.50982625    -0.12260
C443        C  0.28392875  0.50737211  0.53748217     0.01850
C444        C  0.28710045  0.03640247  0.50791726    -0.00480
C445        C  0.29407007  0.03565315  0.95175402    -0.12200
C446        C  0.29387136  0.00675243  0.92388969     0.01730
H447        H  0.28021476  0.45644270  0.53247849     0.14710
H448        H  0.29681903  0.05784496  0.92876106     0.14710
C449        C  0.29634710  0.00774047  0.86526283     0.36360
C450        C  0.27459931  0.50607217  0.59441620     0.36390
N451        N  0.29798283  0.00829552  0.81821041    -0.43980
N452        N  0.26638192  0.50461380  0.63970927    -0.43980
C453        C  0.21555628  0.22558218  0.49993805    -0.00390
C454        C  0.20954673  0.25261316  0.53122723    -0.12260
C455        C  0.20856893  0.28282599  0.50656809     0.01850
C456        C  0.21383642  0.28611416  0.94972585    -0.00480
C457        C  0.21428361  0.25863550  0.91780206    -0.12200
C458        C  0.21507086  0.22843054  0.94238080     0.01730
H459        H  0.20840870  0.25056042  0.57529851     0.14710
H460        H  0.21706134  0.26077320  0.87393376     0.14710
C461        C  0.21711129  0.20097445  0.90762305     0.36360
C462        C  0.20385682  0.31013669  0.54082083     0.36270
N463        N  0.21869189  0.17898461  0.87978267    -0.43980
N464        N  0.20001892  0.33205349  0.56813537    -0.43980
O465        O  0.29922771  0.87925294  0.44699474    -0.85580
O466        O  0.25448437  0.92956198  0.44870457    -0.82630
C467        C  0.27618518  0.94810949  0.42532114     0.97880
O468        O  0.28549268  0.94173959  0.37800148    -0.82660
O469        O  0.29444403  0.91252025  0.28227364    -0.85310
C470        C  0.31408996  0.88872049  0.27682891     1.02410
O471        O  0.30423279  0.86143586  0.29384500    -0.78070
O472        O  0.30121152  0.83587742  0.39615449    -0.78260
C473        C  0.31460591  0.85447478  0.43300926     1.02360
O474        O  0.24248698  0.83680448  0.45355812    -0.85580
O475        O  0.19927840  0.88676198  0.42691328    -0.82640
C476        C  0.18751652  0.91131050  0.40382694     0.97900
O477        O  0.20673802  0.92934667  0.37250192    -0.82670
O478        O  0.21709805  0.90102372  0.27617848    -0.85280
C479        C  0.20722040  0.87325452  0.26276442     1.02370
O480        O  0.22563543  0.84940343  0.27662252    -0.78100
O481        O  0.22370027  0.82184995  0.37475178    -0.78240
C482        C  0.22585843  0.81682245  0.42498909     1.02330
Cr483      Cr  0.24925871  0.88300049  0.43791017     1.93740
Cr484      Cr  0.25135863  0.91836200  0.32955639     1.93210
Cr485      Cr  0.26324043  0.84497306  0.33672891     1.39100
O486        O  0.25477595  0.88204761  0.36663847    -1.23330
O487        O  0.43969908  0.62017078  0.43153748    -0.85580
O488        O  0.47691000  0.56372971  0.44980474    -0.82630
C489        C  0.46449323  0.54434646  0.41587694     0.97880
O490        O  0.96432330  0.55228665  0.36671570    -0.82660
O491        O  0.45973664  0.59264613  0.28310940    -0.85310
C492        C  0.44462956  0.61902411  0.27531501     1.02410
O493        O  0.45895605  0.64487845  0.29143795    -0.78070
O494        O  0.45366100  0.66729764  0.39530767    -0.78260
C495        C  0.43384603  0.64949932  0.42543686     1.02360
O496        O  0.00051774  0.65461233  0.46895991    -0.85580
O497        O  0.03754406  0.59967496  0.45371052    -0.82640
C498        C  0.05485310  0.58148630  0.42369754     0.97900
O499        O  0.04160882  0.56767557  0.38137943    -0.82670
O500        O  0.03825089  0.60060570  0.28607505    -0.85280
C501        C  0.05258706  0.62788402  0.28113347     1.02370
O502        O  0.03738195  0.65195681  0.29901151    -0.78100
O503        O  0.53083023  0.67279907  0.40094533    -0.78240
C504        C  0.02111671  0.67580913  0.44931733     1.02330
Cr505      Cr  0.48884625  0.60995927  0.44453326     1.93740
Cr506      Cr  0.00059479  0.58146719  0.33246194     1.93210
Cr507      Cr  0.49514521  0.65559047  0.34759115     1.39100
O508        O  0.49554450  0.61557278  0.37396943    -1.23330
O509        O  0.03415632  0.89093016  0.99581865    -0.85580
O510        O  0.03136706  0.82571307  0.02140622    -0.82630
C511        C  0.02398059  0.80041621  0.04818951     0.97880
O512        O  0.50571063  0.80203575  0.09099132    -0.82660
O513        O  0.04474268  0.83991982  0.16287967    -0.85310
C514        C  0.05943138  0.86548256  0.18019672     1.02410
O515        O  0.04195925  0.89090757  0.17766846    -0.78070
O516        O  0.06045493  0.90719820  0.07152676    -0.78260
C517        C  0.06067836  0.90316228  0.02037385     1.02360
O518        O  0.46083492  0.89508503  0.00740357    -0.85580
O519        O  0.45735177  0.82870597  0.03008662    -0.82640
C520        C  0.43405197  0.83037654  0.06605112     0.97900
O521        O  0.44262356  0.83578350  0.11510832    -0.82670
O522        O  0.47752376  0.86734121  0.19765262    -0.85280
C523        C  0.45814771  0.89087033  0.18743585     1.02370
O524        O  0.46843281  0.91055428  0.15120119    -0.78100
O525        O  0.99221699  0.93136206  0.05221482    -0.78240
C526        C  0.46824789  0.92408042  0.01793489     1.02330
Cr527      Cr  0.99635848  0.86074673  0.01916827     1.93740
Cr528      Cr  0.49347055  0.83817321  0.13875341     1.93210
Cr529      Cr  0.01488031  0.90725531  0.11241454     1.39100
O530        O  0.00204134  0.86872793  0.08953073    -1.23330
O531        O  0.20449897  0.62539724  0.00811274    -0.85580
O532        O  0.24865446  0.67880988  0.00382817    -0.82630
C533        C  0.22750050  0.69625520  0.02759126     0.97880
O534        O  0.21978609  0.68990607  0.07612870    -0.82660
O535        O  0.21264130  0.66000446  0.17302979    -0.85310
C536        C  0.19346746  0.63523458  0.18210872     1.02410
O537        O  0.20228795  0.60850246  0.16479576    -0.78070
O538        O  0.20204764  0.58294154  0.06335657    -0.78260
C539        C  0.18830768  0.60083627  0.02634335     1.02360
O540        O  0.26109750  0.58662660  0.00188657    -0.85580
O541        O  0.30462781  0.63928122  0.02553094    -0.82640
C542        C  0.31674135  0.66424465  0.04802039     0.97900
O543        O  0.29793910  0.68125834  0.07882532    -0.82670
O544        O  0.28977044  0.65121148  0.17568624    -0.85280
C545        C  0.29843857  0.62365668  0.19080887     1.02370
O546        O  0.27931922  0.59940458  0.17792948    -0.78100
O547        O  0.27957179  0.57220551  0.08121277    -0.78240
C548        C  0.27651719  0.56683089  0.03148004     1.02330
Cr549      Cr  0.25447844  0.63244263  0.01609131     1.93740
Cr550      Cr  0.25451282  0.66769094  0.12358504     1.93210
Cr551      Cr  0.24130618  0.59372971  0.11976146     1.39100
O552        O  0.24980062  0.63123316  0.08776538    -1.23330
C553        C  0.40762113  0.61993916  0.25145604    -0.00390
C554        C  0.38705696  0.59144750  0.24613452    -0.12260
C555        C  0.35089797  0.59159593  0.23006073     0.01850
C556        C  0.33389238  0.62085494  0.21963187    -0.00480
C557        C  0.35431002  0.64922579  0.22713181    -0.12200
C558        C  0.39039774  0.64912467  0.24141448     0.01730
H559        H  0.39926520  0.56876986  0.25432840     0.14710
H560        H  0.34253440  0.67212284  0.21915763     0.14710
C561        C  0.40886442  0.67980649  0.24387222     0.36360
C562        C  0.33318634  0.56124564  0.22043758     0.36270
N563        N  0.42347429  0.70446094  0.24564960    -0.43980
N564        N  0.31963786  0.53666759  0.21199764    -0.43980
C565        C  0.08905745  0.63075439  0.25666637    -0.00390
C566        C  0.10199419  0.65983594  0.23381919    -0.12260
C567        C  0.13643694  0.66272482  0.21133990     0.01850
C568        C  0.15907167  0.63630495  0.21226372    -0.00480
C569        C  0.14660693  0.60792844  0.23729895    -0.12200
C570        C  0.11249457  0.60481299  0.25896303     0.01730
H571        H  0.08490951  0.68018280  0.23236331     0.14710
H572        H  0.16358488  0.58747824  0.23919606     0.14710
C573        C  0.10308368  0.57436005  0.28389772     0.36360
C574        C  0.14708672  0.69251523  0.18538384     0.36270
N575        N  0.09622886  0.54967122  0.30330049    -0.43980
N576        N  0.15557390  0.71640024  0.16448854    -0.43980
C577        C  0.40936036  0.66300630  0.46430781    -0.00390
C578        C  0.40787920  0.64755798  0.51516600    -0.12260
C579        C  0.37914056  0.65092984  0.04868842     0.01850
C580        C  0.35307754  0.67291493  0.03431469    -0.00480
C581        C  0.35822834  0.69305011  0.48863317    -0.12200
C582        C  0.38627319  0.68798302  0.45279754     0.01730
H583        H  0.42685027  0.62940659  0.52569779     0.14710
H584        H  0.33788262  0.70969859  0.97701362     0.14710
C585        C  0.38903107  0.70674393  0.40331010     0.36360
C586        C  0.37287324  0.62538595  0.08758131     0.36270
N587        N  0.39131790  0.72212293  0.36395062    -0.43980
N588        N  0.36856745  0.60306510  0.11502668    -0.43980
C589        C  0.09264217  0.58166768  0.43648151    -0.00390
C590        C  0.10734270  0.61249528  0.44016074    -0.12260
C591        C  0.13540861  0.61902779  0.47504318     0.01850
C592        C  0.15376334  0.59352192  0.00003254    -0.00480
C593        C  0.14105155  0.56187699  0.99244782    -0.12200
C594        C  0.10967470  0.55604614  0.46200706     0.01730
H595        H  0.09351987  0.63235916  0.42161173     0.14710
H596        H  0.15512123  0.54218939  0.01071410     0.14710
C597        C  0.09464416  0.52414185  0.45817954     0.36360
C598        C  0.14207045  0.65224961  0.48829602     0.36270
N599        N  0.08188575  0.49883732  0.45401546    -0.43980
N600        N  0.14632316  0.67888253  0.49909673    -0.43980
C601        C  0.45280951  0.51179827  0.43521269    -0.00390
C602        C  0.44262863  0.50828869  0.98990376    -0.12260
C603        C  0.44257157  0.47850783  0.01626048     0.01850
C604        C  0.45226538  0.95107713  0.98771040    -0.00480
C605        C  0.45749386  0.95374159  0.43117609    -0.12200
C606        C  0.45800110  0.98382266  0.40473897     0.01730
H607        H  0.43760391  0.52933561  0.01359948     0.14710
H608        H  0.46514953  0.93292042  0.40881132     0.14710
C609        C  0.46779805  0.98543275  0.34802652     0.36360
C610        C  0.43600734  0.47744330  0.07416152     0.36270
N611        N  0.47568078  0.98660070  0.30255563    -0.43980
N612        N  0.43098289  0.47726899  0.12061541    -0.43980
C613        C  0.02919179  0.70582064  0.48036451    -0.00390
C614        C  0.04814162  0.73143318  0.45520474    -0.12260
C615        C  0.04964824  0.76212954  0.47825511     0.01850
C616        C  0.03165204  0.76784714  0.02733962    -0.00480
C617        C  0.51597003  0.74146697  0.55493729    -0.12200
C618        C  0.51442169  0.71102103  0.53234336     0.01730
H619        H  0.06056587  0.72790360  0.41616718     0.14710
H620        H  0.50284551  0.74475873  0.09348727     0.14710
C621        C  0.49557902  0.68630581  0.56297481     0.36360
C622        C  0.06950305  0.78715577  0.95026430     0.36270
N623        N  0.48030270  0.66682333  0.58790806    -0.43980
N624        N  0.08581524  0.80704730  0.92795107    -0.43980
C625        C  0.35099794  0.89226425  0.25428221    -0.00390
C626        C  0.37857286  0.87706166  0.28274580    -0.12260
C627        C  0.41370440  0.87780180  0.26366429     0.01850
C628        C  0.42239143  0.89365639  0.21406691    -0.00480
C629        C  0.39488993  0.90959674  0.18620897    -0.12200
C630        C  0.35971181  0.90927216  0.20598675     0.01730
H631        H  0.37261378  0.86442452  0.32057102     0.14710
H632        H  0.40043205  0.92118645  0.14744171     0.14710
C633        C  0.33270030  0.92486260  0.17422854     0.36360
C634        C  0.44027011  0.86218056  0.29639306     0.36270
N635        N  0.31105665  0.93728549  0.14856382    -0.43980
N636        N  0.46147087  0.84969879  0.32287837    -0.43980
C637        C  0.17086512  0.87011466  0.23581173    -0.00390
C638        C  0.14785511  0.89571946  0.24289750    -0.12260
C639        C  0.11179485  0.89387442  0.22829955     0.01850
C640        C  0.09716540  0.86644638  0.20226206    -0.00480
C641        C  0.12011563  0.84085552  0.19377883    -0.12200
C642        C  0.15631215  0.84227232  0.21090677     0.01730
H643        H  0.15742551  0.91710617  0.26346073     0.14710
H644        H  0.10984397  0.81961879  0.17354127     0.14710
C645        C  0.17782708  0.81500677  0.20193802     0.36360
C646        C  0.09031655  0.92022805  0.24374868     0.36270
N647        N  0.19504112  0.79310347  0.19456180    -0.43980
N648        N  0.07321899  0.94126058  0.25673926    -0.43980
C649        C  0.34622074  0.84688678  0.46622300    -0.00390
C650        C  0.35501329  0.81503845  0.47673811    -0.12260
C651        C  0.38163329  0.80803695  0.01523493     0.01850
C652        C  0.39781053  0.83274992  0.04597034    -0.00480
C653        C  0.38739798  0.86403650  0.53791664    -0.12200
C654        C  0.36399097  0.87156720  0.49605140     0.01730
H655        H  0.34142602  0.79584666  0.45494524     0.14710
H656        H  0.40109694  0.88322539  0.55974062     0.14710
C657        C  0.36099396  0.90506380  0.48222949     0.36360
C658        C  0.39316259  0.77574343  0.02205664     0.36270
N659        N  0.35912849  0.93185964  0.47104979    -0.43980
N660        N  0.40331898  0.75021888  0.02868001    -0.43980
C661        C  0.15137590  0.91844440  0.41863446    -0.00390
C662        C  0.14701890  0.93896663  0.46289093    -0.12260
C663        C  0.11776510  0.93485940  0.99765179     0.01850
C664        C  0.09169119  0.91101855  0.98604696    -0.00480
C665        C  0.09483530  0.89272374  0.43885507    -0.12200
C666        C  0.12464907  0.89537361  0.40655827     0.01730
H667        H  0.16833689  0.95573489  0.47383990     0.14710
H668        H  0.07530019  0.87397221  0.42956260     0.14710
C669        C  0.12992316  0.86993025  0.36852015     0.36360
C670        C  0.11575957  0.95454281  0.04531104     0.36270
N671        N  0.13370974  0.84838148  0.34039336    -0.43980
N672        N  0.11415969  0.97040279  0.08344150    -0.43980
C673        C  0.28731647  0.97794127  0.45277845    -0.00390
C674        C  0.28479732  0.97855073  0.00982959    -0.12260
C675        C  0.28394351  0.00736519  0.03748845     0.01850
C676        C  0.28711968  0.53639547  0.00792661    -0.00480
C677        C  0.29405041  0.53565815  0.45174470    -0.12200
C678        C  0.29385907  0.50675608  0.42388449     0.01730
H679        H  0.28022059  0.95643677  0.03247973     0.14710
H680        H  0.29679876  0.55784902  0.42874913     0.14710
C681        C  0.29634016  0.50774117  0.36525843     0.36360
C682        C  0.27460786  0.00606580  0.09441990     0.36390
N683        N  0.29798044  0.50829269  0.31820649    -0.43980
N684        N  0.26638437  0.00460968  0.13971034    -0.43980
C685        C  0.21546421  0.72555587  0.99992817    -0.00390
C686        C  0.20948191  0.75259236  0.03122153    -0.12260
C687        C  0.20854922  0.78281216  0.00657161     0.01850
C688        C  0.21384159  0.78612441  0.44971922    -0.00480
C689        C  0.21430837  0.75864464  0.41780125    -0.12200
C690        C  0.21513946  0.72844569  0.44239039     0.01730
H691        H  0.20833443  0.75053651  0.07529154     0.14710
H692        H  0.21706950  0.76077970  0.37392992     0.14710
C693        C  0.21717403  0.70098418  0.40764358     0.36360
C694        C  0.20386092  0.81012443  0.04083021     0.36270
N695        N  0.21873935  0.67898981  0.37981035    -0.43980
N696        N  0.20004121  0.83204373  0.06814636    -0.43980
O697        O  0.29922931  0.87925123  0.94699698    -0.85580
O698        O  0.25448736  0.92955983  0.94870711    -0.82630
C699        C  0.27618828  0.94810732  0.92532284     0.97880
O700        O  0.28549407  0.94173818  0.87800241    -0.82660
O701        O  0.29444303  0.91252159  0.78227428    -0.85310
C702        C  0.31408896  0.88872225  0.77682779     1.02410
O703        O  0.30423201  0.86143734  0.79384317    -0.78070
O704        O  0.30121489  0.83587763  0.89615241    -0.78260
C705        C  0.31460868  0.85447463  0.93300804     1.02360
O706        O  0.24248777  0.83679814  0.95356664    -0.85580
O707        O  0.19928054  0.88675966  0.92691753    -0.82640
C708        C  0.18751915  0.91130917  0.90383350     0.97900
O709        O  0.20673990  0.92934551  0.87250793    -0.82670
O710        O  0.21709804  0.90102399  0.77618219    -0.85280
C711        C  0.20721956  0.87325497  0.76276869     1.02370
O712        O  0.22563339  0.84940312  0.77662825    -0.78100
O713        O  0.22370583  0.82184233  0.87475825    -0.78240
C714        C  0.22586254  0.81681358  0.92499633     1.02330
Cr715      Cr  0.24926043  0.88299732  0.93791389     1.93740
Cr716      Cr  0.25135898  0.91836117  0.82955986     1.93210
Cr717      Cr  0.26324170  0.84497179  0.83673073     1.39100
O718        O  0.25477665  0.88204570  0.86664162    -1.23330
O719        O  0.43974790  0.62016818  0.93165283    -0.85580
O720        O  0.47692946  0.56369886  0.94978100    -0.82630
C721        C  0.46446771  0.54433604  0.91585471     0.97880
O722        O  0.96426820  0.55229224  0.86669793    -0.82660
O723        O  0.45974510  0.59265395  0.78307428    -0.85310
C724        C  0.44463037  0.61903013  0.77531966     1.02410
O725        O  0.45894055  0.64487790  0.79149650    -0.78070
O726        O  0.45369619  0.66728611  0.89537063    -0.78260
C727        C  0.43388891  0.64949514  0.92552211     1.02360
O728        O  0.00060194  0.65456753  0.96898817    -0.85580
O729        O  0.03759546  0.59959785  0.95364522    -0.82640
C730        C  0.05486011  0.58137361  0.92362910     0.97900
O731        O  0.04157013  0.56757544  0.88133586    -0.82670
O732        O  0.03826559  0.60057411  0.78610557    -0.85280
C733        C  0.05258675  0.62785832  0.78113291     1.02370
O734        O  0.03736811  0.65193217  0.79898328    -0.78100
O735        O  0.53086242  0.67277905  0.90093763    -0.78240
C736        C  0.02116756  0.67578269  0.94932098     1.02330
Cr737      Cr  0.48889790  0.60992249  0.94454682     1.93740
Cr738      Cr  0.00057776  0.58143927  0.83244405     1.93210
Cr739      Cr  0.49515628  0.65557170  0.84761327     1.39100
O740        O  0.49555739  0.61554608  0.87397460    -1.23330
O741        O  0.03415242  0.89093377  0.49581563    -0.85580
O742        O  0.03136596  0.82571862  0.52141017    -0.82630
C743        C  0.02398072  0.80042337  0.54819799     0.97880
O744        O  0.50570935  0.80204332  0.59099739    -0.82660
O745        O  0.04474152  0.83992439  0.66288216    -0.85310
C746        C  0.05943144  0.86548696  0.68019705     1.02410
O747        O  0.04196060  0.89091260  0.67766683    -0.78070
O748        O  0.06045405  0.90720157  0.57152158    -0.78260
C749        C  0.06067530  0.90316609  0.52036817     1.02360
O750        O  0.46083157  0.89508773  0.50740582    -0.85580
O751        O  0.45735021  0.82870854  0.53009065    -0.82640
C752        C  0.43405035  0.83037986  0.56605492     0.97900
O753        O  0.44262206  0.83578866  0.61511160    -0.82670
O754        O  0.47752384  0.86734698  0.69765516    -0.85280
C755        C  0.45814774  0.89087566  0.68743723     1.02370
O756        O  0.46843319  0.91055920  0.65120207    -0.78100
O757        O  0.99221626  0.93136408  0.55221498    -0.78240
C758        C  0.46824569  0.92408285  0.51793765     1.02330
Cr759      Cr  0.99635597  0.86075023  0.51916991     1.93740
Cr760      Cr  0.49346932  0.83817887  0.63875682     1.93210
Cr761      Cr  0.01488042  0.90725934  0.61241362     1.39100
O762        O  0.00204016  0.86873233  0.58953210    -1.23330
O763        O  0.20457836  0.62548340  0.50810011    -0.85580
O764        O  0.24877328  0.67885366  0.50387280    -0.82630
C765        C  0.22759780  0.69628982  0.52760891     0.97880
O766        O  0.21984646  0.68992893  0.57612707    -0.82660
O767        O  0.21263700  0.66003195  0.67301773    -0.85310
C768        C  0.19347861  0.63525573  0.68212279     1.02410
O769        O  0.20231795  0.60852455  0.66483481    -0.78070
O770        O  0.20205157  0.58303192  0.56335278    -0.78260
C771        C  0.18834454  0.60095117  0.52634095     1.02360
O772        O  0.26112113  0.58665708  0.50188639    -0.85580
O773        O  0.30469352  0.63927913  0.52562784    -0.82640
C774        C  0.31680090  0.66424671  0.54811197     0.97900
O775        O  0.29799500  0.68126231  0.57891139    -0.82670
O776        O  0.28976033  0.65121664  0.67576899    -0.85280
C777        C  0.29844477  0.62365696  0.69084020     1.02370
O778        O  0.27934316  0.59940240  0.67791729    -0.78100
O779        O  0.27956709  0.57221131  0.58120917    -0.78240
C780        C  0.27651445  0.56684317  0.53147601     1.02330
Cr781      Cr  0.25455037  0.63247888  0.51612478     1.93740
Cr782      Cr  0.25454007  0.66770925  0.62362528     1.93210
Cr783      Cr  0.24132035  0.59375591  0.61976643     1.39100
O784        O  0.24983919  0.63125891  0.58779371    -1.23330
C785        C  0.40762788  0.61994481  0.75145109    -0.00390
C786        C  0.38706764  0.59145134  0.74612767    -0.12260
C787        C  0.35090860  0.59159747  0.73006203     0.01850
C788        C  0.33390066  0.62085597  0.71964643    -0.00480
C789        C  0.35431628  0.64922858  0.72714074    -0.12200
C790        C  0.39040446  0.64912943  0.74141214     0.01730
H791        H  0.39927819  0.56877439  0.75431835     0.14710
H792        H  0.34253923  0.67212543  0.71917049     0.14710
C793        C  0.40887185  0.67981125  0.74386000     0.36360
C794        C  0.33319805  0.56124625  0.72043979     0.36270
N795        N  0.42348080  0.70446634  0.74562899    -0.43980
N796        N  0.31964988  0.53666804  0.71199953    -0.43980
C797        C  0.08905826  0.63073864  0.75666441    -0.00390
C798        C  0.10198619  0.65982422  0.73381786    -0.12260
C799        C  0.13643087  0.66272503  0.71134516     0.01850
C800        C  0.15907795  0.63631418  0.71227404    -0.00480
C801        C  0.14662148  0.60793355  0.73730843    -0.12200
C802        C  0.11250711  0.60480608  0.75896573     0.01730
H803        H  0.08489360  0.68016552  0.73235854     0.14710
H804        H  0.16360762  0.58748909  0.73920997     0.14710
C805        C  0.10310564  0.57435027  0.78389785     0.36360
C806        C  0.14707173  0.69251794  0.68538979     0.36270
N807        N  0.09625604  0.54965999  0.80329916    -0.43980
N808        N  0.15555507  0.71640348  0.66449284    -0.43980
C809        C  0.40937110  0.66300819  0.96434345    -0.00390
C810        C  0.40786030  0.64757049  0.01520750    -0.12260
C811        C  0.37918953  0.65092621  0.54870314     0.01850
C812        C  0.35312871  0.67292385  0.53438319    -0.00480
C813        C  0.35820160  0.69303567  0.98856532    -0.12200
C814        C  0.38627501  0.68797268  0.95277902     0.01730
H815        H  0.42683519  0.62943044  0.02578420     0.14710
H816        H  0.33790844  0.70972073  0.47712130     0.14710
C817        C  0.38904939  0.70672572  0.90328560     0.36360
C818        C  0.37292759  0.62537530  0.58758756     0.36270
N819        N  0.39133936  0.72210312  0.86392478    -0.43980
N820        N  0.36860781  0.60305311  0.61502566    -0.43980
C821        C  0.09266017  0.58151072  0.93635843    -0.00390
C822        C  0.10737794  0.61233064  0.94004799    -0.12260
C823        C  0.13535270  0.61886139  0.97509699     0.01850
C824        C  0.15379387  0.59368374  0.50003413    -0.00480
C825        C  0.14105179  0.56204421  0.49252478    -0.12200
C826        C  0.10967075  0.55588297  0.96192013     0.01730
H827        H  0.09356400  0.63220727  0.92148847     0.14710
H828        H  0.15511617  0.54236018  0.51079555     0.14710
C829        C  0.09459532  0.52398983  0.95815696     0.36360
C830        C  0.14183022  0.65205398  0.98871780     0.36270
N831        N  0.08178803  0.49869976  0.95405572    -0.43980
N832        N  0.14592524  0.67865022  0.99987536    -0.43980
C833        C  0.45277893  0.51178956  0.93518897    -0.00390
C834        C  0.44265366  0.50829608  0.48992418    -0.12260
C835        C  0.44257965  0.47851247  0.51627155     0.01850
C836        C  0.45226490  0.95108088  0.48771670    -0.00480
C837        C  0.45749152  0.95373550  0.93116830    -0.12200
C838        C  0.45798489  0.98381444  0.90472369     0.01730
H839        H  0.43763375  0.52934223  0.51362452     0.14710
H840        H  0.46515626  0.93291567  0.90880799     0.14710
C841        C  0.46779065  0.98542680  0.84801536     0.36360
C842        C  0.43600911  0.47744521  0.57417042     0.36270
N843        N  0.47568199  0.98659870  0.80254835    -0.43980
N844        N  0.43097995  0.47726985  0.62062297    -0.43980
C845        C  0.02921926  0.70580565  0.98035793    -0.00390
C846        C  0.04815438  0.73142536  0.95519246    -0.12260
C847        C  0.04964886  0.76212397  0.97823885     0.01850
C848        C  0.03165143  0.76785475  0.52735436    -0.00480
C849        C  0.51597581  0.74145647  0.05492097    -0.12200
C850        C  0.51444008  0.71100796  0.03233183     0.01730
H851        H  0.06058097  0.72789784  0.91615611     0.14710
H852        H  0.50284323  0.74477035  0.59350613     0.14710
C853        C  0.49560023  0.68629187  0.06296476     0.36360
C854        C  0.06951135  0.78715711  0.45028420     0.36270
N855        N  0.48032591  0.66681028  0.08790279    -0.43980
N856        N  0.08583061  0.80704476  0.42797302    -0.43980
C857        C  0.35099700  0.89226701  0.75428110    -0.00390
C858        C  0.37857234  0.87706566  0.78274567    -0.12260
C859        C  0.41370408  0.87780672  0.76366491     0.01850
C860        C  0.42239104  0.89366114  0.71406730    -0.00480
C861        C  0.39488911  0.90960015  0.68620818    -0.12200
C862        C  0.35971080  0.90927492  0.70598544     0.01730
H863        H  0.37261340  0.86442869  0.82057113     0.14710
H864        H  0.40043106  0.92118921  0.64744034     0.14710
C865        C  0.33269930  0.92486488  0.67422648     0.36360
C866        C  0.44026998  0.86218628  0.79639451     0.36270
N867        N  0.31105600  0.93728760  0.64856075    -0.43980
N868        N  0.46147085  0.84970507  0.82288042    -0.43980
C869        C  0.17086459  0.87011645  0.73581462    -0.00390
C870        C  0.14785502  0.89572165  0.74290064    -0.12260
C871        C  0.11179484  0.89387726  0.72830187     0.01850
C872        C  0.09716529  0.86644982  0.70226285    -0.00480
C873        C  0.12011521  0.84085881  0.69377874    -0.12200
C874        C  0.15631157  0.84227490  0.71090762     0.01730
H875        H  0.15742556  0.91710787  0.76346517     0.14710
H876        H  0.10984348  0.81962259  0.67353974     0.14710
C877        C  0.17782664  0.81500962  0.70193754     0.36360
C878        C  0.09031639  0.92023058  0.74375224     0.36270
N879        N  0.19504127  0.79310680  0.69456054    -0.43980
N880        N  0.07321824  0.94126257  0.75674351    -0.43980
C881        C  0.34622396  0.84688703  0.96621979    -0.00390
C882        C  0.35501595  0.81503856  0.97673271    -0.12260
C883        C  0.38163148  0.80803826  0.51524042     0.01850
C884        C  0.39780858  0.83275213  0.54597384    -0.00480
C885        C  0.38740068  0.86403485  0.03791498    -0.12200
C886        C  0.36399387  0.87156682  0.99605008     0.01730
H887        H  0.34142840  0.79584749  0.95493847     0.14710
H888        H  0.40109986  0.88322305  0.05974035     0.14710
C889        C  0.36099653  0.90506380  0.98223072     0.36360
C890        C  0.39316308  0.77574580  0.52206495     0.36270
N891        N  0.35913117  0.93185997  0.97105329    -0.43980
N892        N  0.40332419  0.75022337  0.52869371    -0.43980
C893        C  0.15137988  0.91844379  0.91864410    -0.00390
C894        C  0.14702619  0.93896064  0.96290870    -0.12260
C895        C  0.11775619  0.93486860  0.49763209     0.01850
C896        C  0.09168648  0.91102241  0.48603741    -0.00480
C897        C  0.09483766  0.89272505  0.93885817    -0.12200
C898        C  0.12465158  0.89537558  0.90656235     0.01730
H899        H  0.16834557  0.95572661  0.97386152     0.14710
H900        H  0.07530065  0.87397621  0.92955944     0.14710
C901        C  0.12992512  0.86993335  0.86852180     0.36360
C902        C  0.11574844  0.95455609  0.54528572     0.36270
N903        N  0.13371189  0.84838487  0.84039445    -0.43980
N904        N  0.11414838  0.97041722  0.58341473    -0.43980
C905        C  0.28732399  0.97793734  0.95278139    -0.00390
C906        C  0.28478751  0.97855657  0.50982625    -0.12260
C907        C  0.28392877  0.00737211  0.53748217     0.01850
C908        C  0.28710044  0.53640247  0.50791725    -0.00480
C909        C  0.29407011  0.53565314  0.95175405    -0.12200
C910        C  0.29387139  0.50675243  0.92388972     0.01730
H911        H  0.28021477  0.95644270  0.53247849     0.14710
H912        H  0.29681908  0.55784496  0.92876110     0.14710
C913        C  0.29634714  0.50774047  0.86526286     0.36360
C914        C  0.27459933  0.00607218  0.59441621     0.36390
N915        N  0.29798287  0.50829553  0.81821044    -0.43980
N916        N  0.26638194  0.00461381  0.63970928    -0.43980
C917        C  0.21555628  0.72558218  0.49993805    -0.00390
C918        C  0.20954673  0.75261316  0.53122723    -0.12260
C919        C  0.20856893  0.78282599  0.50656809     0.01850
C920        C  0.21383642  0.78611414  0.94972584    -0.00480
C921        C  0.21428359  0.75863549  0.91780205    -0.12200
C922        C  0.21507083  0.72843053  0.94238080     0.01730
H923        H  0.20840871  0.75056043  0.57529852     0.14710
H924        H  0.21706132  0.76077319  0.87393375     0.14710
C925        C  0.21711124  0.70097444  0.90762304     0.36360
C926        C  0.20385683  0.81013670  0.54082083     0.36270
N927        N  0.21869183  0.67898460  0.87978266    -0.43980
N928        N  0.20001894  0.83205350  0.56813538    -0.43980
O929        O  0.79922771  0.37925295  0.44699473    -0.85580
O930        O  0.75448436  0.42956198  0.44870455    -0.82630
C931        C  0.77618517  0.44810950  0.42532113     0.97880
O932        O  0.78549268  0.44173959  0.37800147    -0.82660
O933        O  0.79444404  0.41252025  0.28227364    -0.85310
C934        C  0.81408996  0.38872049  0.27682891     1.02410
O935        O  0.80423279  0.36143586  0.29384499    -0.78070
O936        O  0.80121152  0.33587742  0.39615449    -0.78260
C937        C  0.81460591  0.35447479  0.43300926     1.02360
O938        O  0.74248698  0.33680448  0.45355812    -0.85580
O939        O  0.69927839  0.38676198  0.42691326    -0.82640
C940        C  0.68751651  0.41131050  0.40382692     0.97900
O941        O  0.70673801  0.42934667  0.37250190    -0.82670
O942        O  0.71709806  0.40102372  0.27617846    -0.85280
C943        C  0.70722040  0.37325452  0.26276441     1.02370
O944        O  0.72563543  0.34940343  0.27662251    -0.78100
O945        O  0.72370026  0.32184996  0.37475177    -0.78240
C946        C  0.72585842  0.31682246  0.42498909     1.02330
Cr947      Cr  0.74925870  0.38300049  0.43791015     1.93740
Cr948      Cr  0.75135863  0.41836200  0.32955638     1.93210
Cr949      Cr  0.76324042  0.34497306  0.33672891     1.39100
O950        O  0.75477595  0.38204761  0.36663846    -1.23330
O951        O  0.93969900  0.12017081  0.43153732    -0.85580
O952        O  0.97690992  0.06372975  0.44980474    -0.82630
C953        C  0.96449321  0.04434647  0.41587693     0.97880
O954        O  0.46432329  0.05228664  0.36671570    -0.82660
O955        O  0.95973665  0.09264612  0.28310939    -0.85310
C956        C  0.94462957  0.11902410  0.27531497     1.02410
O957        O  0.95895607  0.14487845  0.29143786    -0.78070
O958        O  0.95366095  0.16729767  0.39530756    -0.78260
C959        C  0.93384596  0.14949935  0.42543672     1.02360
O960        O  0.50051776  0.15461231  0.46895991    -0.85580
O961        O  0.53754408  0.09967494  0.45371049    -0.82640
C962        C  0.55485311  0.08148628  0.42369752     0.97900
O963        O  0.54160882  0.06767555  0.38137941    -0.82670
O964        O  0.53825088  0.10060568  0.28607504    -0.85280
C965        C  0.55258705  0.12788400  0.28113346     1.02370
O966        O  0.53738194  0.15195678  0.29901150    -0.78100
O967        O  0.03083018  0.17279910  0.40094532    -0.78240
C968        C  0.52111672  0.17580911  0.44931732     1.02330
Cr969      Cr  0.98884616  0.10995930  0.44453322     1.93740
Cr970      Cr  0.50059479  0.08146717  0.33246193     1.93210
Cr971      Cr  0.99514519  0.15559049  0.34759110     1.39100
O972        O  0.99554448  0.11557281  0.37396941    -1.23330
O973        O  0.53415630  0.39093018  0.99581863    -0.85580
O974        O  0.53136705  0.32571309  0.02140621    -0.82630
C975        C  0.52398058  0.30041623  0.04818950     0.97880
O976        O  0.00571065  0.30203573  0.09099128    -0.82660
O977        O  0.54474268  0.33991985  0.16287965    -0.85310
C978        C  0.55943138  0.36548258  0.18019670     1.02410
O979        O  0.54195926  0.39090759  0.17766844    -0.78070
O980        O  0.56045491  0.40719823  0.07152673    -0.78260
C981        C  0.56067835  0.40316231  0.02037382     1.02360
O982        O  0.96083492  0.39508501  0.00740354    -0.85580
O983        O  0.95735178  0.32870595  0.03008659    -0.82640
C984        C  0.93405198  0.33037652  0.06605109     0.97900
O985        O  0.94262357  0.33578347  0.11510829    -0.82670
O986        O  0.97752376  0.36734118  0.19765260    -0.85280
C987        C  0.95814771  0.39087030  0.18743583     1.02370
O988        O  0.96843281  0.41055425  0.15120116    -0.78100
O989        O  0.49221697  0.43136208  0.05221481    -0.78240
C990        C  0.96824788  0.42408040  0.01793487     1.02330
Cr991      Cr  0.49635847  0.36074675  0.01916826     1.93740
Cr992      Cr  0.99347056  0.33817319  0.13875337     1.93210
Cr993      Cr  0.51488031  0.40725534  0.11241452     1.39100
O994        O  0.50204133  0.36872795  0.08953072    -1.23330
O995        O  0.70449898  0.12539726  0.00811276    -0.85580
O996        O  0.74865451  0.17880988  0.00382820    -0.82630
C997        C  0.72750054  0.19625520  0.02759128     0.97880
O998        O  0.71978612  0.18990607  0.07612871    -0.82660
O999        O  0.71264129  0.16000445  0.17302978    -0.85310
C1000       C  0.69346746  0.13523457  0.18210872     1.02410
O1001       O  0.70228795  0.10850244  0.16479578    -0.78070
O1002       O  0.70204764  0.08294155  0.06335656    -0.78260
C1003       C  0.68830769  0.10083628  0.02634334     1.02360
O1004       O  0.76109749  0.08662659  0.00188657    -0.85580
O1005       O  0.80462782  0.13928119  0.02553097    -0.82640
C1006       C  0.81674137  0.16424461  0.04802046     0.97900
O1007       O  0.79793913  0.18125831  0.07882538    -0.82670
O1008       O  0.78977043  0.15121146  0.17568630    -0.85280
C1009       C  0.79843856  0.12365665  0.19080890     1.02370
O1010       O  0.77931923  0.09940455  0.17792948    -0.78100
O1011       O  0.77957179  0.07220549  0.08121276    -0.78240
C1012       C  0.77651718  0.06683088  0.03148003     1.02330
Cr1013     Cr  0.75447845  0.13244262  0.01609133     1.93740
Cr1014     Cr  0.75451283  0.16769092  0.12358507     1.93210
Cr1015     Cr  0.74130618  0.09372969  0.11976146     1.39100
O1016       O  0.74980063  0.13123315  0.08776540    -1.23330
C1017       C  0.90762114  0.11993915  0.25145602    -0.00390
C1018       C  0.88705697  0.09144748  0.24613452    -0.12260
C1019       C  0.85089797  0.09159591  0.23006075     0.01850
C1020       C  0.83389238  0.12085492  0.21963189    -0.00480
C1021       C  0.85431002  0.14922577  0.22713181    -0.12200
C1022       C  0.89039774  0.14912465  0.24141446     0.01730
H1023       H  0.89926522  0.06876984  0.25432839     0.14710
H1024       H  0.84253439  0.17212282  0.21915764     0.14710
C1025       C  0.90886442  0.17980648  0.24387220     0.36360
C1026       C  0.83318635  0.06124562  0.22043761     0.36270
N1027       N  0.92347428  0.20446092  0.24564957    -0.43980
N1028       N  0.81963787  0.03666757  0.21199767    -0.43980
C1029       C  0.58905744  0.13075437  0.25666635    -0.00390
C1030       C  0.60199418  0.15983593  0.23381918    -0.12260
C1031       C  0.63643694  0.16272480  0.21133990     0.01850
C1032       C  0.65907166  0.13630493  0.21226372    -0.00480
C1033       C  0.64660693  0.10792842  0.23729894    -0.12200
C1034       C  0.61249456  0.10481297  0.25896301     0.01730
H1035       H  0.58490950  0.18018278  0.23236330     0.14710
H1036       H  0.66358488  0.08747822  0.23919605     0.14710
C1037       C  0.60308368  0.07436003  0.28389770     0.36360
C1038       C  0.64708671  0.19251521  0.18538384     0.36270
N1039       N  0.59622885  0.04967119  0.30330045    -0.43980
N1040       N  0.65557389  0.21640023  0.16448856    -0.43980
C1041       C  0.90936031  0.16300633  0.46430770    -0.00390
C1042       C  0.90787917  0.14755800  0.51516589    -0.12260
C1043       C  0.87914056  0.15092972  0.04868856     0.01850
C1044       C  0.85307759  0.17291485  0.03431482    -0.00480
C1045       C  0.85822831  0.19305015  0.48863311    -0.12200
C1046       C  0.88627315  0.18798306  0.45279746     0.01730
H1047       H  0.92685025  0.12940662  0.52569765     0.14710
H1048       H  0.83788275  0.20969855  0.97701376     0.14710
C1049       C  0.88903101  0.20674397  0.40331003     0.36360
C1050       C  0.87287316  0.12538580  0.08758137     0.36270
N1051       N  0.89131785  0.22212298  0.36395055    -0.43980
N1052       N  0.86856730  0.10306492  0.11502665    -0.43980
C1053       C  0.59264218  0.08166765  0.43648146    -0.00390
C1054       C  0.60734272  0.11249525  0.44016064    -0.12260
C1055       C  0.63540862  0.11902777  0.47504309     0.01850
C1056       C  0.65376337  0.09352193  0.00003248    -0.00480
C1057       C  0.64105156  0.06187700  0.99244783    -0.12200
C1058       C  0.60967470  0.05604612  0.46200708     0.01730
H1059       H  0.59351990  0.13235912  0.42161159     0.14710
H1060       H  0.65512121  0.04218940  0.01071420     0.14710
C1061       C  0.59464415  0.02414184  0.45817962     0.36360
C1062       C  0.64207046  0.15224960  0.48829589     0.36270
N1063       N  0.58188573  0.99883731  0.45401558    -0.43980
N1064       N  0.64632316  0.17888253  0.49909656    -0.43980
C1065       C  0.95280951  0.01179828  0.43521268    -0.00390
C1066       C  0.94262869  0.00828868  0.98990378    -0.12260
C1067       C  0.94257161  0.97850781  0.01626049     0.01850
C1068       C  0.95226537  0.45107711  0.98771039    -0.00480
C1069       C  0.95749385  0.45374161  0.43117609    -0.12200
C1070       C  0.95800109  0.48382269  0.40473897     0.01730
H1071       H  0.93760398  0.02933561  0.01359950     0.14710
H1072       H  0.96514951  0.43292044  0.40881133     0.14710
C1073       C  0.96779804  0.48543277  0.34802653     0.36360
C1074       C  0.93600737  0.97744328  0.07416152     0.36270
N1075       N  0.97568076  0.48660071  0.30255563    -0.43980
N1076       N  0.93098292  0.97726897  0.12061541    -0.43980
C1077       C  0.52919179  0.20582063  0.48036450    -0.00390
C1078       C  0.54814161  0.23143316  0.45520471    -0.12260
C1079       C  0.54964823  0.26212953  0.47825509     0.01850
C1080       C  0.53165204  0.26784716  0.02733961    -0.00480
C1081       C  0.01596997  0.24146699  0.55493728    -0.12200
C1082       C  0.01442161  0.21102106  0.53234334     0.01730
H1083       H  0.56056586  0.22790359  0.41616716     0.14710
H1084       H  0.00284556  0.24475871  0.09348724     0.14710
C1085       C  0.99557892  0.18630584  0.56297477     0.36360
C1086       C  0.56950309  0.28715578  0.95026435     0.36270
N1087       N  0.98030258  0.16682337  0.58790801    -0.43980
N1088       N  0.58581530  0.30704731  0.92795114    -0.43980
C1089       C  0.85099794  0.39226424  0.25428220    -0.00390
C1090       C  0.87857286  0.37706165  0.28274579    -0.12260
C1091       C  0.91370441  0.37780178  0.26366427     0.01850
C1092       C  0.92239143  0.39365636  0.21406689    -0.00480
C1093       C  0.89488993  0.40959671  0.18620894    -0.12200
C1094       C  0.85971181  0.40927214  0.20598673     0.01730
H1095       H  0.87261378  0.36442451  0.32057101     0.14710
H1096       H  0.90043205  0.42118642  0.14744168     0.14710
C1097       C  0.83270030  0.42486257  0.17422852     0.36360
C1098       C  0.94027011  0.36218054  0.29639304     0.36270
N1099       N  0.81105666  0.43728547  0.14856380    -0.43980
N1100       N  0.96147087  0.34969877  0.32287835    -0.43980
C1101       C  0.67086513  0.37011466  0.23581171    -0.00390
C1102       C  0.64785513  0.39571948  0.24289746    -0.12260
C1103       C  0.61179486  0.39387445  0.22829951     0.01850
C1104       C  0.59716540  0.36644640  0.20226203    -0.00480
C1105       C  0.62011563  0.34085554  0.19377881    -0.12200
C1106       C  0.65631215  0.34227233  0.21090676     0.01730
H1107       H  0.65742552  0.41710619  0.26346069     0.14710
H1108       H  0.60984397  0.31961880  0.17354127     0.14710
C1109       C  0.67782707  0.31500677  0.20193803     0.36360
C1110       C  0.59031657  0.42022808  0.24374863     0.36270
N1111       N  0.69504110  0.29310346  0.19456181    -0.43980
N1112       N  0.57321901  0.44126061  0.25673920    -0.43980
C1113       C  0.84622074  0.34688679  0.46622301    -0.00390
C1114       C  0.85501328  0.31503846  0.47673812    -0.12260
C1115       C  0.88163329  0.30803694  0.01523490     0.01850
C1116       C  0.89781054  0.33274991  0.04597032    -0.00480
C1117       C  0.88739797  0.36403652  0.53791665    -0.12200
C1118       C  0.86399096  0.37156722  0.49605141     0.01730
H1119       H  0.84142602  0.29584667  0.45494525     0.14710
H1120       H  0.90109693  0.38322541  0.55974063     0.14710
C1121       C  0.86099395  0.40506381  0.48222949     0.36360
C1122       C  0.89316260  0.27574342  0.02205660     0.36270
N1123       N  0.85912848  0.43185965  0.47104979    -0.43980
N1124       N  0.90331900  0.25021887  0.02867996    -0.43980
C1125       C  0.65137590  0.41844440  0.41863444    -0.00390
C1126       C  0.64701891  0.43896662  0.46289095    -0.12260
C1127       C  0.61776506  0.43485945  0.99765171     0.01850
C1128       C  0.59169117  0.41101858  0.98604693    -0.00480
C1129       C  0.59483529  0.39272374  0.43885504    -0.12200
C1130       C  0.62464906  0.39537363  0.40655824     0.01730
H1131       H  0.66833690  0.45573486  0.47383994     0.14710
H1132       H  0.57530017  0.37397222  0.42956255     0.14710
C1133       C  0.62992314  0.36993027  0.36852010     0.36360
C1134       C  0.61575949  0.45454291  0.04531089     0.36270
N1135       N  0.63370972  0.34838150  0.34039331    -0.43980
N1136       N  0.61415958  0.47040294  0.08344130    -0.43980
C1137       C  0.78731645  0.47794128  0.45277844    -0.00390
C1138       C  0.78479735  0.47855071  0.00982962    -0.12260
C1139       C  0.78394354  0.50736517  0.03748848     0.01850
C1140       C  0.78711967  0.03639546  0.00792660    -0.00480
C1141       C  0.79405040  0.03565817  0.45174469    -0.12200
C1142       C  0.79385906  0.00675609  0.42388449     0.01730
H1143       H  0.78022061  0.45643675  0.03247975     0.14710
H1144       H  0.79679874  0.05784903  0.42874911     0.14710
C1145       C  0.79634014  0.00774118  0.36525842     0.36360
C1146       C  0.77460789  0.50606577  0.09441993     0.36390
N1147       N  0.79798040  0.00829270  0.31820648    -0.43980
N1148       N  0.76638441  0.50460966  0.13971037    -0.43980
C1149       C  0.71546426  0.22555587  0.99992818    -0.00390
C1150       C  0.70948193  0.25259236  0.03122153    -0.12260
C1151       C  0.70854923  0.28281216  0.00657161     0.01850
C1152       C  0.71384158  0.28612442  0.44971922    -0.00480
C1153       C  0.71430835  0.25864465  0.41780125    -0.12200
C1154       C  0.71513943  0.22844570  0.44239039     0.01730
H1155       H  0.70833444  0.25053650  0.07529154     0.14710
H1156       H  0.71706947  0.26077971  0.37392991     0.14710
C1157       C  0.71717400  0.20098419  0.40764358     0.36360
C1158       C  0.70386091  0.31012442  0.04083021     0.36270
N1159       N  0.71873930  0.17898982  0.37981035    -0.43980
N1160       N  0.70004118  0.33204372  0.06814635    -0.43980
O1161       O  0.79922930  0.37925122  0.94699700    -0.85580
O1162       O  0.75448736  0.42955983  0.94870712    -0.82630
C1163       C  0.77618829  0.44810731  0.92532285     0.97880
O1164       O  0.78549407  0.44173818  0.87800242    -0.82660
O1165       O  0.79444302  0.41252159  0.78227428    -0.85310
C1166       C  0.81408895  0.38872226  0.77682780     1.02410
O1167       O  0.80423201  0.36143735  0.79384319    -0.78070
O1168       O  0.80121488  0.33587763  0.89615242    -0.78260
C1169       C  0.81460867  0.35447463  0.93300805     1.02360
O1170       O  0.74248776  0.33679815  0.95356665    -0.85580
O1171       O  0.69928053  0.38675967  0.92691753    -0.82640
C1172       C  0.68751915  0.41130918  0.90383351     0.97900
O1173       O  0.70673990  0.42934552  0.87250794    -0.82670
O1174       O  0.71709803  0.40102399  0.77618220    -0.85280
C1175       C  0.70721955  0.37325497  0.76276870     1.02370
O1176       O  0.72563339  0.34940312  0.77662825    -0.78100
O1177       O  0.72370583  0.32184233  0.87475825    -0.78240
C1178       C  0.72586253  0.31681359  0.92499634     1.02330
Cr1179     Cr  0.74926042  0.38299733  0.93791389     1.93740
Cr1180     Cr  0.75135898  0.41836118  0.82955986     1.93210
Cr1181     Cr  0.76324170  0.34497180  0.83673073     1.39100
O1182       O  0.75477664  0.38204570  0.86664163    -1.23330
O1183       O  0.93974809  0.12016810  0.93165315    -0.85580
O1184       O  0.97692970  0.06369878  0.94978101    -0.82630
C1185       C  0.96446780  0.04433602  0.91585474     0.97880
O1186       O  0.46426820  0.05229227  0.86669795    -0.82660
O1187       O  0.95974509  0.09265397  0.78307431    -0.85310
C1188       C  0.94463035  0.11903014  0.77531976     1.02410
O1189       O  0.95894052  0.14487791  0.79149668    -0.78070
O1190       O  0.95369629  0.16728604  0.89537085    -0.78260
C1191       C  0.93388906  0.14949506  0.92552240     1.02360
O1192       O  0.50060200  0.15456753  0.96898819    -0.85580
O1193       O  0.53759555  0.09959786  0.95364517    -0.82640
C1194       C  0.55486016  0.08137361  0.92362903     0.97900
O1195       O  0.54157015  0.06757543  0.88133582    -0.82670
O1196       O  0.53826560  0.10057413  0.78610556    -0.85280
C1197       C  0.55258676  0.12785834  0.78113290     1.02370
O1198       O  0.53736812  0.15193219  0.79898328    -0.78100
O1199       O  0.03086253  0.17277902  0.90093764    -0.78240
C1200       C  0.52116760  0.17578270  0.94932100     1.02330
Cr1201     Cr  0.98889811  0.10992242  0.94454689     1.93740
Cr1202     Cr  0.50057777  0.08143929  0.83244404     1.93210
Cr1203     Cr  0.99515632  0.15557166  0.84761336     1.39100
O1204       O  0.99555746  0.11554604  0.87397464    -1.23330
O1205       O  0.53415242  0.39093376  0.49581562    -0.85580
O1206       O  0.53136596  0.32571860  0.52141016    -0.82630
C1207       C  0.52398072  0.30042335  0.54819797     0.97880
O1208       O  0.00570934  0.30204335  0.59099740    -0.82660
O1209       O  0.54474152  0.33992438  0.66288215    -0.85310
C1210       C  0.55943144  0.36548694  0.68019705     1.02410
O1211       O  0.54196060  0.39091259  0.67766682    -0.78070
O1212       O  0.56045406  0.40720155  0.57152158    -0.78260
C1213       C  0.56067530  0.40316608  0.52036816     1.02360
O1214       O  0.96083156  0.39508775  0.50740583    -0.85580
O1215       O  0.95735020  0.32870856  0.53009067    -0.82640
C1216       C  0.93405034  0.33037989  0.56605494     0.97900
O1217       O  0.94262205  0.33578869  0.61511162    -0.82670
O1218       O  0.97752383  0.36734701  0.69765517    -0.85280
C1219       C  0.95814774  0.39087569  0.68743724     1.02370
O1220       O  0.96843318  0.41055923  0.65120208    -0.78100
O1221       O  0.49221626  0.43136406  0.55221497    -0.78240
C1222       C  0.96824568  0.42408288  0.51793766     1.02330
Cr1223     Cr  0.49635597  0.36075022  0.51916990     1.93740
Cr1224     Cr  0.99346932  0.33817890  0.63875683     1.93210
Cr1225     Cr  0.51488042  0.40725933  0.61241361     1.39100
O1226       O  0.50204016  0.36873231  0.58953209    -1.23330
O1227       O  0.70457835  0.12548341  0.50810011    -0.85580
O1228       O  0.74877326  0.17885368  0.50387279    -0.82630
C1229       C  0.72759778  0.19628983  0.52760891     0.97880
O1230       O  0.71984645  0.18992894  0.57612707    -0.82660
O1231       O  0.71263701  0.16003197  0.67301773    -0.85310
C1232       C  0.69347862  0.13525575  0.68212278     1.02410
O1233       O  0.70231795  0.10852457  0.66483479    -0.78070
O1234       O  0.70205157  0.08303193  0.56335277    -0.78260
C1235       C  0.68834454  0.10095118  0.52634093     1.02360
O1236       O  0.76112113  0.08665709  0.50188639    -0.85580
O1237       O  0.80469352  0.13927916  0.52562781    -0.82640
C1238       C  0.81680089  0.16424674  0.54811194     0.97900
O1239       O  0.79799499  0.18126234  0.57891136    -0.82670
O1240       O  0.78976034  0.15121666  0.67576896    -0.85280
C1241       C  0.79844477  0.12365698  0.69084018     1.02370
O1242       O  0.77934316  0.09940243  0.67791728    -0.78100
O1243       O  0.77956709  0.07221133  0.58120917    -0.78240
C1244       C  0.77651445  0.06684319  0.53147600     1.02330
Cr1245     Cr  0.75455036  0.13247890  0.51612477     1.93740
Cr1246     Cr  0.75454008  0.16770927  0.62362526     1.93210
Cr1247     Cr  0.74132035  0.09375593  0.61976642     1.39100
O1248       O  0.74983919  0.13125893  0.58779370    -1.23330
C1249       C  0.90762787  0.11994483  0.75145116    -0.00390
C1250       C  0.88706764  0.09145136  0.74612770    -0.12260
C1251       C  0.85090860  0.09159749  0.73006204     0.01850
C1252       C  0.83390067  0.12085599  0.71964643    -0.00480
C1253       C  0.85431627  0.14922861  0.72714077    -0.12200
C1254       C  0.89040445  0.14912945  0.74141221     0.01730
H1255       H  0.89927818  0.06877441  0.75431839     0.14710
H1256       H  0.84253923  0.17212545  0.71917053     0.14710
C1257       C  0.90887185  0.17981127  0.74386010     0.36360
C1258       C  0.83319806  0.06124628  0.72043977     0.36270
N1259       N  0.92348079  0.20446636  0.74562912    -0.43980
N1260       N  0.81964988  0.03666806  0.71199950    -0.43980
C1261       C  0.58905827  0.13073866  0.75666440    -0.00390
C1262       C  0.60198620  0.15982424  0.73381787    -0.12260
C1263       C  0.63643089  0.16272505  0.71134518     0.01850
C1264       C  0.65907796  0.13631420  0.71227404    -0.00480
C1265       C  0.64662148  0.10793357  0.73730842    -0.12200
C1266       C  0.61250711  0.10480609  0.75896571     0.01730
H1267       H  0.58489362  0.18016555  0.73235856     0.14710
H1268       H  0.66360763  0.08748911  0.73920995     0.14710
C1269       C  0.60310564  0.07435028  0.78389781     0.36360
C1270       C  0.64707175  0.19251796  0.68538982     0.36270
N1271       N  0.59625604  0.04965999  0.80329910    -0.43980
N1272       N  0.65555509  0.21640351  0.66449288    -0.43980
C1273       C  0.90937121  0.16300810  0.96434369    -0.00390
C1274       C  0.90786034  0.14757037  0.01520772    -0.12260
C1275       C  0.87918952  0.15092625  0.54870307     0.01850
C1276       C  0.85312870  0.17292388  0.53438313    -0.00480
C1277       C  0.85820171  0.19303560  0.98856549    -0.12200
C1278       C  0.88627514  0.18797261  0.95277924     0.01730
H1279       H  0.92683520  0.12943030  0.02578445     0.14710
H1280       H  0.83790841  0.20972077  0.47712126     0.14710
C1281       C  0.88904958  0.20672567  0.90328585     0.36360
C1282       C  0.87292761  0.12537535  0.58758752     0.36270
N1283       N  0.89133960  0.22210308  0.86392505    -0.43980
N1284       N  0.86860785  0.10305318  0.61502567    -0.43980
C1285       C  0.59266023  0.08151069  0.93635831    -0.00390
C1286       C  0.60737802  0.11233061  0.94004778    -0.12260
C1287       C  0.63535276  0.11886138  0.97509681     0.01850
C1288       C  0.65379387  0.09368374  0.50003410    -0.00480
C1289       C  0.64105179  0.06204421  0.49252480    -0.12200
C1290       C  0.60967077  0.05588297  0.96192012     0.01730
H1291       H  0.59356411  0.13220723  0.92148818     0.14710
H1292       H  0.65511616  0.04236018  0.51079561     0.14710
C1293       C  0.59459532  0.02398983  0.95815703     0.36360
C1294       C  0.64183028  0.15205398  0.98871755     0.36270
N1295       N  0.58178801  0.99869976  0.95405585    -0.43980
N1296       N  0.64592529  0.17865023  0.99987506    -0.43980
C1297       C  0.95277899  0.01178955  0.93518899    -0.00390
C1298       C  0.94265365  0.00829609  0.48992417    -0.12260
C1299       C  0.94257964  0.97851248  0.51627155     0.01850
C1300       C  0.95226489  0.45108090  0.48771671    -0.00480
C1301       C  0.95749151  0.45373548  0.93116829    -0.12200
C1302       C  0.95798487  0.48381442  0.90472368     0.01730
H1303       H  0.93763373  0.02934224  0.51362451     0.14710
H1304       H  0.96515625  0.43291566  0.90880797     0.14710
C1305       C  0.96779062  0.48542679  0.84801534     0.36360
C1306       C  0.93600910  0.97744523  0.57417042     0.36270
N1307       N  0.97568196  0.48659869  0.80254833    -0.43980
N1308       N  0.93097994  0.97726986  0.62062297    -0.43980
C1309       C  0.52921928  0.20580567  0.98035794    -0.00390
C1310       C  0.54815441  0.23142537  0.95519248    -0.12260
C1311       C  0.54964888  0.26212399  0.97823887     0.01850
C1312       C  0.53165144  0.26785473  0.52735434    -0.00480
C1313       C  0.01597587  0.24145645  0.05492095    -0.12200
C1314       C  0.01444018  0.21100793  0.03233183     0.01730
H1315       H  0.56058103  0.22789785  0.91615615     0.14710
H1316       H  0.00284316  0.24477039  0.59350611     0.14710
C1317       C  0.99560034  0.18629184  0.06296477     0.36360
C1318       C  0.56951133  0.28715710  0.45028417     0.36270
N1319       N  0.98032603  0.16681025  0.08790279    -0.43980
N1320       N  0.58583059  0.30704476  0.42797297    -0.43980
C1321       C  0.85099700  0.39226702  0.75428111    -0.00390
C1322       C  0.87857233  0.37706568  0.78274567    -0.12260
C1323       C  0.91370407  0.37780674  0.76366491     0.01850
C1324       C  0.92239104  0.39366116  0.71406731    -0.00480
C1325       C  0.89488911  0.40960018  0.68620819    -0.12200
C1326       C  0.85971079  0.40927494  0.70598545     0.01730
H1327       H  0.87261340  0.36442870  0.82057113     0.14710
H1328       H  0.90043105  0.42118923  0.64744036     0.14710
C1329       C  0.83269929  0.42486489  0.67422650     0.36360
C1330       C  0.94026997  0.36218630  0.79639452     0.36270
N1331       N  0.81105600  0.43728762  0.64856077    -0.43980
N1332       N  0.96147085  0.34970509  0.82288042    -0.43980
C1333       C  0.67086459  0.37011645  0.73581464    -0.00390
C1334       C  0.64785501  0.39572164  0.74290066    -0.12260
C1335       C  0.61179483  0.39387725  0.72830188     0.01850
C1336       C  0.59716529  0.36644981  0.70226285    -0.00480
C1337       C  0.62011521  0.34085880  0.69377874    -0.12200
C1338       C  0.65631157  0.34227489  0.71090762     0.01730
H1339       H  0.65742554  0.41710786  0.76346519     0.14710
H1340       H  0.60984348  0.31962258  0.67353973     0.14710
C1341       C  0.67782665  0.31500962  0.70193754     0.36360
C1342       C  0.59031637  0.42023056  0.74375225     0.36270
N1343       N  0.69504128  0.29310680  0.69456054    -0.43980
N1344       N  0.57321822  0.44126255  0.75674352    -0.43980
C1345       C  0.84622395  0.34688702  0.96621980    -0.00390
C1346       C  0.85501595  0.31503856  0.97673269    -0.12260
C1347       C  0.88163148  0.30803828  0.51524044     0.01850
C1348       C  0.89780857  0.33275215  0.54597386    -0.00480
C1349       C  0.88740069  0.36403483  0.03791498    -0.12200
C1350       C  0.86399387  0.37156681  0.99605009     0.01730
H1351       H  0.84142840  0.29584749  0.95493846     0.14710
H1352       H  0.90109987  0.38322303  0.05974035     0.14710
C1353       C  0.86099652  0.40506379  0.98223075     0.36360
C1354       C  0.89316308  0.27574581  0.52206498     0.36270
N1355       N  0.85913116  0.43185997  0.97105333    -0.43980
N1356       N  0.90332418  0.25022339  0.52869374    -0.43980
C1357       C  0.65137987  0.41844380  0.91864408    -0.00390
C1358       C  0.64702615  0.43896068  0.96290863    -0.12260
C1359       C  0.61775620  0.43486858  0.49763211     0.01850
C1360       C  0.59168649  0.41102240  0.48603740    -0.00480
C1361       C  0.59483765  0.39272504  0.93885818    -0.12200
C1362       C  0.62465158  0.39537557  0.90656236     0.01730
H1363       H  0.66834552  0.45572667  0.97386142     0.14710
H1364       H  0.57530066  0.37397619  0.92955947     0.14710
C1365       C  0.62992513  0.36993333  0.86852183     0.36360
C1366       C  0.61574848  0.45455603  0.54528578     0.36270
N1367       N  0.63371191  0.34838485  0.84039449    -0.43980
N1368       N  0.61414843  0.47041713  0.58341483    -0.43980
C1369       C  0.78732401  0.47793733  0.95278141    -0.00390
C1370       C  0.78478749  0.47855658  0.50982624    -0.12260
C1371       C  0.78392874  0.50737212  0.53748216     0.01850
C1372       C  0.78710043  0.03640249  0.50791724    -0.00480
C1373       C  0.79407009  0.03565313  0.95175404    -0.12200
C1374       C  0.79387138  0.00675242  0.92388971     0.01730
H1375       H  0.78021476  0.45644272  0.53247848     0.14710
H1376       H  0.79681906  0.05784495  0.92876109     0.14710
C1377       C  0.79634713  0.00774046  0.86526285     0.36360
C1378       C  0.77459930  0.50607219  0.59441619     0.36390
N1379       N  0.79798286  0.00829551  0.81821043    -0.43980
N1380       N  0.76638190  0.50461382  0.63970926    -0.43980
C1381       C  0.71555626  0.22558220  0.49993805    -0.00390
C1382       C  0.70954672  0.25261318  0.53122723    -0.12260
C1383       C  0.70856892  0.28282600  0.50656809     0.01850
C1384       C  0.71383643  0.28611414  0.94972585    -0.00480
C1385       C  0.71428363  0.25863548  0.91780206    -0.12200
C1386       C  0.71507089  0.22843052  0.94238080     0.01730
H1387       H  0.70840870  0.25056044  0.57529852     0.14710
H1388       H  0.71706136  0.26077318  0.87393376     0.14710
C1389       C  0.71711132  0.20097444  0.90762305     0.36360
C1390       C  0.70385683  0.31013671  0.54082084     0.36270
N1391       N  0.71869192  0.17898460  0.87978267    -0.43980
N1392       N  0.70001895  0.33205351  0.56813538    -0.43980
O1393       O  0.79922771  0.87925295  0.44699473    -0.85580
O1394       O  0.75448437  0.92956199  0.44870456    -0.82630
C1395       C  0.77618518  0.94810950  0.42532113     0.97880
O1396       O  0.78549268  0.94173960  0.37800147    -0.82660
O1397       O  0.79444404  0.91252025  0.28227364    -0.85310
C1398       C  0.81408996  0.88872049  0.27682891     1.02410
O1399       O  0.80423279  0.86143586  0.29384499    -0.78070
O1400       O  0.80121152  0.83587742  0.39615449    -0.78260
C1401       C  0.81460591  0.85447479  0.43300926     1.02360
O1402       O  0.74248699  0.83680449  0.45355812    -0.85580
O1403       O  0.69927840  0.88676198  0.42691327    -0.82640
C1404       C  0.68751652  0.91131050  0.40382693     0.97900
O1405       O  0.70673802  0.92934668  0.37250191    -0.82670
O1406       O  0.71709806  0.90102372  0.27617847    -0.85280
C1407       C  0.70722040  0.87325453  0.26276442     1.02370
O1408       O  0.72563543  0.84940343  0.27662252    -0.78100
O1409       O  0.72370027  0.82184996  0.37475178    -0.78240
C1410       C  0.72585843  0.81682246  0.42498910     1.02330
Cr1411     Cr  0.74925871  0.88300050  0.43791016     1.93740
Cr1412     Cr  0.75135863  0.91836200  0.32955639     1.93210
Cr1413     Cr  0.76324042  0.84497306  0.33672891     1.39100
O1414       O  0.75477596  0.88204762  0.36663847    -1.23330
O1415       O  0.93969903  0.62017081  0.43153739    -0.85580
O1416       O  0.97690994  0.56372975  0.44980474    -0.82630
C1417       C  0.96449321  0.54434647  0.41587693     0.97880
O1418       O  0.46432328  0.55228665  0.36671572    -0.82660
O1419       O  0.95973665  0.59264614  0.28310940    -0.85310
C1420       C  0.94462957  0.61902411  0.27531499     1.02410
O1421       O  0.95895607  0.64487846  0.29143790    -0.78070
O1422       O  0.95366097  0.66729767  0.39530761    -0.78260
C1423       C  0.93384599  0.64949935  0.42543677     1.02360
O1424       O  0.50051780  0.65461230  0.46895993    -0.85580
O1425       O  0.53754412  0.59967493  0.45371046    -0.82640
C1426       C  0.55485313  0.58148626  0.42369748     0.97900
O1427       O  0.54160881  0.56767553  0.38137939    -0.82670
O1428       O  0.53825088  0.60060568  0.28607504    -0.85280
C1429       C  0.55258705  0.62788399  0.28113346     1.02370
O1430       O  0.53738194  0.65195678  0.29901150    -0.78100
O1431       O  0.03083021  0.67279909  0.40094534    -0.78240
C1432       C  0.52111675  0.67580910  0.44931733     1.02330
Cr1433     Cr  0.98884619  0.60995930  0.44453324     1.93740
Cr1434     Cr  0.50059478  0.58146717  0.33246193     1.93210
Cr1435     Cr  0.99514520  0.65559049  0.34759113     1.39100
O1436       O  0.99554448  0.61557281  0.37396942    -1.23330
O1437       O  0.53415631  0.89093018  0.99581865    -0.85580
O1438       O  0.53136705  0.82571308  0.02140624    -0.82630
C1439       C  0.52398058  0.80041623  0.04818953     0.97880
O1440       O  0.00571064  0.80203573  0.09099131    -0.82660
O1441       O  0.54474268  0.83991984  0.16287968    -0.85310
C1442       C  0.55943137  0.86548258  0.18019673     1.02410
O1443       O  0.54195926  0.89090759  0.17766847    -0.78070
O1444       O  0.56045492  0.90719822  0.07152676    -0.78260
C1445       C  0.56067836  0.90316230  0.02037385     1.02360
O1446       O  0.96083493  0.89508502  0.00740356    -0.85580
O1447       O  0.95735178  0.82870595  0.03008660    -0.82640
C1448       C  0.93405198  0.83037652  0.06605110     0.97900
O1449       O  0.94262356  0.83578347  0.11510830    -0.82670
O1450       O  0.97752376  0.86734118  0.19765261    -0.85280
C1451       C  0.95814771  0.89087031  0.18743584     1.02370
O1452       O  0.96843281  0.91055425  0.15120117    -0.78100
O1453       O  0.49221698  0.93136208  0.05221483    -0.78240
C1454       C  0.96824789  0.92408040  0.01793488     1.02330
Cr1455     Cr  0.49635847  0.86074675  0.01916828     1.93740
Cr1456     Cr  0.99347056  0.83817319  0.13875339     1.93210
Cr1457     Cr  0.51488031  0.90725533  0.11241455     1.39100
O1458       O  0.50204133  0.86872795  0.08953074    -1.23330
O1459       O  0.70449897  0.62539722  0.00811276    -0.85580
O1460       O  0.74865447  0.67880986  0.00382817    -0.82630
C1461       C  0.72750051  0.69625518  0.02759126     0.97880
O1462       O  0.71978610  0.68990605  0.07612869    -0.82660
O1463       O  0.71264129  0.66000445  0.17302978    -0.85310
C1464       C  0.69346746  0.63523457  0.18210872     1.02410
O1465       O  0.70228796  0.60850244  0.16479579    -0.78070
O1466       O  0.70204765  0.58294153  0.06335660    -0.78260
C1467       C  0.68830769  0.60083625  0.02634340     1.02360
O1468       O  0.76109750  0.58662658  0.00188658    -0.85580
O1469       O  0.80462781  0.63928120  0.02553094    -0.82640
C1470       C  0.81674135  0.66424463  0.04802041     0.97900
O1471       O  0.79793911  0.68125832  0.07882533    -0.82670
O1472       O  0.78977044  0.65121147  0.17568626    -0.85280
C1473       C  0.79843857  0.62365667  0.19080888     1.02370
O1474       O  0.77931924  0.59940457  0.17792948    -0.78100
O1475       O  0.77957180  0.57220549  0.08121278    -0.78240
C1476       C  0.77651720  0.56683087  0.03148005     1.02330
Cr1477     Cr  0.75447844  0.63244261  0.01609132     1.93740
Cr1478     Cr  0.75451283  0.66769092  0.12358505     1.93210
Cr1479     Cr  0.74130620  0.59372969  0.11976148     1.39100
O1480       O  0.74980063  0.63123314  0.08776540    -1.23330
C1481       C  0.90762114  0.61993917  0.25145602    -0.00390
C1482       C  0.88705697  0.59144750  0.24613452    -0.12260
C1483       C  0.85089798  0.59159593  0.23006075     0.01850
C1484       C  0.83389239  0.62085494  0.21963188    -0.00480
C1485       C  0.85431003  0.64922579  0.22713180    -0.12200
C1486       C  0.89039775  0.64912467  0.24141447     0.01730
H1487       H  0.89926522  0.56876986  0.25432840     0.14710
H1488       H  0.84253440  0.67212284  0.21915763     0.14710
C1489       C  0.90886442  0.67980650  0.24387220     0.36360
C1490       C  0.83318636  0.56124564  0.22043761     0.36270
N1491       N  0.92347429  0.70446094  0.24564957    -0.43980
N1492       N  0.81963788  0.53666759  0.21199767    -0.43980
C1493       C  0.58905744  0.63075437  0.25666635    -0.00390
C1494       C  0.60199418  0.65983592  0.23381918    -0.12260
C1495       C  0.63643694  0.66272480  0.21133990     0.01850
C1496       C  0.65907166  0.63630493  0.21226371    -0.00480
C1497       C  0.64660692  0.60792841  0.23729893    -0.12200
C1498       C  0.61249455  0.60481297  0.25896299     0.01730
H1499       H  0.58490951  0.68018278  0.23236331     0.14710
H1500       H  0.66358487  0.58747821  0.23919603     0.14710
C1501       C  0.60308367  0.57436002  0.28389767     0.36360
C1502       C  0.64708672  0.69251521  0.18538385     0.36270
N1503       N  0.59622884  0.54967118  0.30330041    -0.43980
N1504       N  0.65557390  0.71640023  0.16448857    -0.43980
C1505       C  0.90936033  0.66300633  0.46430775    -0.00390
C1506       C  0.90787919  0.64755800  0.51516594    -0.12260
C1507       C  0.87914056  0.65092980  0.04868847     0.01850
C1508       C  0.85307755  0.67291489  0.03431473    -0.00480
C1509       C  0.85822832  0.69305014  0.48863314    -0.12200
C1510       C  0.88627316  0.68798305  0.45279750     0.01730
H1511       H  0.92685026  0.62940662  0.52569771     0.14710
H1512       H  0.83788266  0.70969856  0.97701365     0.14710
C1513       C  0.88903103  0.70674396  0.40331006     0.36360
C1514       C  0.87287321  0.62538590  0.08758133     0.36270
N1515       N  0.89131786  0.72212297  0.36395058    -0.43980
N1516       N  0.86856740  0.60306503  0.11502667    -0.43980
C1517       C  0.59264221  0.58166762  0.43648137    -0.00390
C1518       C  0.60734277  0.61249521  0.44016045    -0.12260
C1519       C  0.63540866  0.61902775  0.47504292     0.01850
C1520       C  0.65376332  0.59352193  0.00003267    -0.00480
C1521       C  0.64105156  0.56187701  0.99244779    -0.12200
C1522       C  0.60967470  0.55604610  0.46200709     0.01730
H1523       H  0.59351996  0.63235907  0.42161134     0.14710
H1524       H  0.65512127  0.54218938  0.01071392     0.14710
C1525       C  0.59464413  0.52414182  0.45817972     0.36360
C1526       C  0.64207050  0.65224960  0.48829564     0.36270
N1527       N  0.58188567  0.49883730  0.45401575    -0.43980
N1528       N  0.64632319  0.67888254  0.49909625    -0.43980
C1529       C  0.95280950  0.51179828  0.43521268    -0.00390
C1530       C  0.94262865  0.50828867  0.98990376    -0.12260
C1531       C  0.94257158  0.47850781  0.01626048     0.01850
C1532       C  0.95226539  0.95107711  0.98771039    -0.00480
C1533       C  0.95749386  0.95374160  0.43117610    -0.12200
C1534       C  0.95800110  0.98382268  0.40473898     0.01730
H1535       H  0.93760393  0.52933560  0.01359948     0.14710
H1536       H  0.96514952  0.93292044  0.40881134     0.14710
C1537       C  0.96779805  0.98543276  0.34802653     0.36360
C1538       C  0.93600735  0.47744327  0.07416151     0.36270
N1539       N  0.97568078  0.98660070  0.30255563    -0.43980
N1540       N  0.93098290  0.47726897  0.12061540    -0.43980
C1541       C  0.52919183  0.70582062  0.48036451    -0.00390
C1542       C  0.54814164  0.73143316  0.45520472    -0.12260
C1543       C  0.54964825  0.76212953  0.47825509     0.01850
C1544       C  0.53165202  0.76784716  0.02733963    -0.00480
C1545       C  0.01597000  0.74146699  0.55493730    -0.12200
C1546       C  0.01442165  0.71102106  0.53234336     0.01730
H1547       H  0.56056588  0.72790359  0.41616716     0.14710
H1548       H  0.00284555  0.74475870  0.09348726     0.14710
C1549       C  0.99557896  0.68630583  0.56297479     0.36360
C1550       C  0.56950305  0.78715578  0.95026433     0.36270
N1551       N  0.98030263  0.66682336  0.58790804    -0.43980
N1552       N  0.58581525  0.80704731  0.92795112    -0.43980
C1553       C  0.85099794  0.89226424  0.25428220    -0.00390
C1554       C  0.87857286  0.87706165  0.28274579    -0.12260
C1555       C  0.91370440  0.87780178  0.26366428     0.01850
C1556       C  0.92239143  0.89365637  0.21406690    -0.00480
C1557       C  0.89488993  0.90959672  0.18620895    -0.12200
C1558       C  0.85971181  0.90927214  0.20598674     0.01730
H1559       H  0.87261378  0.86442451  0.32057102     0.14710
H1560       H  0.90043205  0.92118643  0.14744169     0.14710
C1561       C  0.83270031  0.92486258  0.17422853     0.36360
C1562       C  0.94027011  0.86218054  0.29639305     0.36270
N1563       N  0.81105666  0.93728548  0.14856381    -0.43980
N1564       N  0.96147087  0.84969877  0.32287836    -0.43980
C1565       C  0.67086513  0.87011467  0.23581172    -0.00390
C1566       C  0.64785512  0.89571948  0.24289749    -0.12260
C1567       C  0.61179485  0.89387444  0.22829955     0.01850
C1568       C  0.59716540  0.86644640  0.20226206    -0.00480
C1569       C  0.62011562  0.84085554  0.19377883    -0.12200
C1570       C  0.65631215  0.84227233  0.21090677     0.01730
H1571       H  0.65742552  0.91710618  0.26346072     0.14710
H1572       H  0.60984397  0.81961880  0.17354127     0.14710
C1573       C  0.67782707  0.81500678  0.20193802     0.36360
C1574       C  0.59031656  0.92022807  0.24374868     0.36270
N1575       N  0.69504111  0.79310347  0.19456180    -0.43980
N1576       N  0.57321900  0.94126060  0.25673926    -0.43980
C1577       C  0.84622074  0.84688679  0.46622300    -0.00390
C1578       C  0.85501328  0.81503846  0.47673812    -0.12260
C1579       C  0.88163329  0.80803693  0.01523491     0.01850
C1580       C  0.89781054  0.83274991  0.04597032    -0.00480
C1581       C  0.88739798  0.86403652  0.53791664    -0.12200
C1582       C  0.86399097  0.87156722  0.49605140     0.01730
H1583       H  0.84142602  0.79584667  0.45494526     0.14710
H1584       H  0.90109694  0.88322541  0.55974062     0.14710
C1585       C  0.86099396  0.90506381  0.48222947     0.36360
C1586       C  0.89316260  0.77574341  0.02205661     0.36270
N1587       N  0.85912850  0.93185965  0.47104976    -0.43980
N1588       N  0.90331899  0.75021886  0.02867997    -0.43980
C1589       C  0.65137590  0.91844440  0.41863445    -0.00390
C1590       C  0.64701891  0.93896662  0.46289094    -0.12260
C1591       C  0.61776509  0.93485942  0.99765177     0.01850
C1592       C  0.59169118  0.91101857  0.98604696    -0.00480
C1593       C  0.59483530  0.89272374  0.43885505    -0.12200
C1594       C  0.62464907  0.89537362  0.40655825     0.01730
H1595       H  0.66833689  0.95573487  0.47383992     0.14710
H1596       H  0.57530018  0.87397221  0.42956257     0.14710
C1597       C  0.62992316  0.86993026  0.36852012     0.36360
C1598       C  0.61575954  0.95454286  0.04531099     0.36270
N1599       N  0.63370974  0.84838149  0.34039333    -0.43980
N1600       N  0.61415965  0.97040286  0.08344143    -0.43980
C1601       C  0.78731646  0.97794128  0.45277844    -0.00390
C1602       C  0.78479733  0.97855072  0.00982961    -0.12260
C1603       C  0.78394352  0.00736517  0.03748847     0.01850
C1604       C  0.78711969  0.53639545  0.00792662    -0.00480
C1605       C  0.79405039  0.53565817  0.45174469    -0.12200
C1606       C  0.79385906  0.50675609  0.42388448     0.01730
H1607       H  0.78022060  0.95643675  0.03247974     0.14710
H1608       H  0.79679873  0.55784903  0.42874911     0.14710
C1609       C  0.79634014  0.50774118  0.36525842     0.36360
C1610       C  0.77460788  0.00606578  0.09441992     0.36390
N1611       N  0.79798041  0.50829270  0.31820647    -0.43980
N1612       N  0.76638439  0.00460966  0.13971036    -0.43980
C1613       C  0.71546422  0.72555585  0.99992816    -0.00390
C1614       C  0.70948191  0.75259234  0.03122152    -0.12260
C1615       C  0.70854922  0.78281215  0.00657160     0.01850
C1616       C  0.71384158  0.78612442  0.44971922    -0.00480
C1617       C  0.71430836  0.75864466  0.41780125    -0.12200
C1618       C  0.71513945  0.72844571  0.44239039     0.01730
H1619       H  0.70833443  0.75053649  0.07529153     0.14710
H1620       H  0.71706949  0.76077971  0.37392992     0.14710
C1621       C  0.71717402  0.70098419  0.40764358     0.36360
C1622       C  0.70386092  0.81012441  0.04083020     0.36270
N1623       N  0.71873933  0.67898982  0.37981036    -0.43980
N1624       N  0.70004120  0.83204371  0.06814635    -0.43980
O1625       O  0.79922931  0.87925121  0.94699699    -0.85580
O1626       O  0.75448737  0.92955982  0.94870712    -0.82630
C1627       C  0.77618828  0.94810731  0.92532285     0.97880
O1628       O  0.78549407  0.94173817  0.87800242    -0.82660
O1629       O  0.79444302  0.91252159  0.78227428    -0.85310
C1630       C  0.81408896  0.88872225  0.77682780     1.02410
O1631       O  0.80423201  0.86143734  0.79384318    -0.78070
O1632       O  0.80121489  0.83587762  0.89615241    -0.78260
C1633       C  0.81460868  0.85447462  0.93300804     1.02360
O1634       O  0.74248777  0.83679813  0.95356665    -0.85580
O1635       O  0.69928054  0.88675965  0.92691754    -0.82640
C1636       C  0.68751915  0.91130916  0.90383351     0.97900
O1637       O  0.70673990  0.92934551  0.87250795    -0.82670
O1638       O  0.71709803  0.90102399  0.77618221    -0.85280
C1639       C  0.70721955  0.87325496  0.76276870     1.02370
O1640       O  0.72563339  0.84940312  0.77662825    -0.78100
O1641       O  0.72370583  0.82184232  0.87475825    -0.78240
C1642       C  0.72586254  0.81681357  0.92499633     1.02330
Cr1643     Cr  0.74926042  0.88299732  0.93791389     1.93740
Cr1644     Cr  0.75135898  0.91836117  0.82955987     1.93210
Cr1645     Cr  0.76324170  0.84497179  0.83673073     1.39100
O1646       O  0.75477665  0.88204570  0.86664163    -1.23330
O1647       O  0.93974797  0.62016814  0.93165296    -0.85580
O1648       O  0.97692954  0.56369882  0.94978100    -0.82630
C1649       C  0.96446774  0.54433602  0.91585472     0.97880
O1650       O  0.46426822  0.55229224  0.86669791    -0.82660
O1651       O  0.95974509  0.59265394  0.78307429    -0.85310
C1652       C  0.94463035  0.61903012  0.77531970     1.02410
O1653       O  0.95894053  0.64487789  0.79149657    -0.78070
O1654       O  0.95369623  0.66728607  0.89537071    -0.78260
C1655       C  0.93388896  0.64949511  0.92552222     1.02360
O1656       O  0.50060186  0.65456757  0.96898814    -0.85580
O1657       O  0.53759538  0.59959788  0.95364529    -0.82640
C1658       C  0.55486007  0.58137366  0.92362918     0.97900
O1659       O  0.54157013  0.56757550  0.88133591    -0.82670
O1660       O  0.53826559  0.60057413  0.78610558    -0.85280
C1661       C  0.55258676  0.62785835  0.78113293     1.02370
O1662       O  0.53736812  0.65193220  0.79898330    -0.78100
O1663       O  0.03086246  0.67277903  0.90093763    -0.78240
C1664       C  0.52116750  0.67578272  0.94932098     1.02330
Cr1665     Cr  0.98889798  0.60992245  0.94454684     1.93740
Cr1666     Cr  0.50057777  0.58143930  0.83244405     1.93210
Cr1667     Cr  0.99515629  0.65557167  0.84761330     1.39100
O1668       O  0.99555741  0.61554606  0.87397461    -1.23330
O1669       O  0.53415242  0.89093375  0.49581562    -0.85580
O1670       O  0.53136597  0.82571860  0.52141016    -0.82630
C1671       C  0.52398073  0.80042335  0.54819797     0.97880
O1672       O  0.00570934  0.80204334  0.59099740    -0.82660
O1673       O  0.54474152  0.83992438  0.66288215    -0.85310
C1674       C  0.55943144  0.86548694  0.68019705     1.02410
O1675       O  0.54196060  0.89091258  0.67766682    -0.78070
O1676       O  0.56045406  0.90720155  0.57152158    -0.78260
C1677       C  0.56067530  0.90316608  0.52036816     1.02360
O1678       O  0.96083157  0.89508775  0.50740583    -0.85580
O1679       O  0.95735020  0.82870856  0.53009067    -0.82640
C1680       C  0.93405034  0.83037988  0.56605493     0.97900
O1681       O  0.94262206  0.83578868  0.61511162    -0.82670
O1682       O  0.97752384  0.86734701  0.69765518    -0.85280
C1683       C  0.95814774  0.89087569  0.68743724     1.02370
O1684       O  0.96843319  0.91055922  0.65120208    -0.78100
O1685       O  0.49221626  0.93136406  0.55221497    -0.78240
C1686       C  0.96824569  0.92408287  0.51793766     1.02330
Cr1687     Cr  0.49635598  0.86075021  0.51916990     1.93740
Cr1688     Cr  0.99346932  0.83817889  0.63875683     1.93210
Cr1689     Cr  0.51488042  0.90725932  0.61241361     1.39100
O1690       O  0.50204017  0.86873231  0.58953209    -1.23330
O1691       O  0.70457835  0.62548342  0.50810011    -0.85580
O1692       O  0.74877327  0.67885368  0.50387280    -0.82630
C1693       C  0.72759779  0.69628983  0.52760892     0.97880
O1694       O  0.71984645  0.68992894  0.57612708    -0.82660
O1695       O  0.71263701  0.66003196  0.67301774    -0.85310
C1696       C  0.69347861  0.63525574  0.68212278     1.02410
O1697       O  0.70231794  0.60852457  0.66483478    -0.78070
O1698       O  0.70205156  0.58303194  0.56335276    -0.78260
C1699       C  0.68834454  0.60095119  0.52634091     1.02360
O1700       O  0.76112113  0.58665710  0.50188638    -0.85580
O1701       O  0.80469352  0.63927915  0.52562783    -0.82640
C1702       C  0.81680089  0.66424673  0.54811195     0.97900
O1703       O  0.79799499  0.68126233  0.57891138    -0.82670
O1704       O  0.78976033  0.65121665  0.67576896    -0.85280
C1705       C  0.79844476  0.62365697  0.69084019     1.02370
O1706       O  0.77934314  0.59940242  0.67791728    -0.78100
O1707       O  0.77956708  0.57221133  0.58120916    -0.78240
C1708       C  0.77651444  0.56684318  0.53147600     1.02330
Cr1709     Cr  0.75455036  0.63247890  0.51612477     1.93740
Cr1710     Cr  0.75454007  0.66770927  0.62362527     1.93210
Cr1711     Cr  0.74132033  0.59375593  0.61976642     1.39100
O1712       O  0.74983919  0.63125892  0.58779370    -1.23330
C1713       C  0.90762787  0.61994481  0.75145111    -0.00390
C1714       C  0.88706763  0.59145134  0.74612767    -0.12260
C1715       C  0.85090859  0.59159747  0.73006202     0.01850
C1716       C  0.83390066  0.62085598  0.71964642    -0.00480
C1717       C  0.85431627  0.64922859  0.72714074    -0.12200
C1718       C  0.89040445  0.64912943  0.74141216     0.01730
H1719       H  0.89927818  0.56877439  0.75431836     0.14710
H1720       H  0.84253923  0.67212543  0.71917050     0.14710
C1721       C  0.90887185  0.67981125  0.74386003     0.36360
C1722       C  0.83319804  0.56124626  0.72043977     0.36270
N1723       N  0.92348080  0.70446634  0.74562902    -0.43980
N1724       N  0.81964986  0.53666805  0.71199950    -0.43980
C1725       C  0.58905827  0.63073867  0.75666443    -0.00390
C1726       C  0.60198619  0.65982424  0.73381786    -0.12260
C1727       C  0.63643088  0.66272505  0.71134516     0.01850
C1728       C  0.65907796  0.63631420  0.71227405    -0.00480
C1729       C  0.64662149  0.60793358  0.73730846    -0.12200
C1730       C  0.61250712  0.60480611  0.75896577     0.01730
H1731       H  0.58489361  0.68016554  0.73235853     0.14710
H1732       H  0.66360763  0.58748912  0.73921001     0.14710
C1733       C  0.60310566  0.57435030  0.78389792     0.36360
C1734       C  0.64707173  0.69251795  0.68538977     0.36270
N1735       N  0.59625606  0.54966003  0.80329925    -0.43980
N1736       N  0.65555507  0.71640349  0.66449280    -0.43980
C1737       C  0.90937114  0.66300815  0.96434354    -0.00390
C1738       C  0.90786032  0.64757044  0.01520758    -0.12260
C1739       C  0.87918953  0.65092624  0.54870310     0.01850
C1740       C  0.85312870  0.67292387  0.53438316    -0.00480
C1741       C  0.85820163  0.69303564  0.98856537    -0.12200
C1742       C  0.88627505  0.68797264  0.95277909     0.01730
H1743       H  0.92683520  0.62943039  0.02578430     0.14710
H1744       H  0.83790842  0.70972076  0.47712128     0.14710
C1745       C  0.88904945  0.70672569  0.90328567     0.36360
C1746       C  0.87292760  0.62537534  0.58758754     0.36270
N1747       N  0.89133944  0.72210308  0.86392485    -0.43980
N1748       N  0.86860784  0.60305315  0.61502566    -0.43980
C1749       C  0.59266011  0.58151080  0.93635859    -0.00390
C1750       C  0.60737785  0.61233073  0.94004834    -0.12260
C1751       C  0.63535263  0.61886143  0.97509731     0.01850
C1752       C  0.65379388  0.59368373  0.50003404    -0.00480
C1753       C  0.64105178  0.56204420  0.49252481    -0.12200
C1754       C  0.60967074  0.55588302  0.96192011     0.01730
H1755       H  0.59356388  0.63220739  0.92148895     0.14710
H1756       H  0.65511613  0.54236019  0.51079571     0.14710
C1757       C  0.59459537  0.52398986  0.95815675     0.36360
C1758       C  0.64183017  0.65205400  0.98871826     0.36270
N1759       N  0.58178812  0.49869978  0.95405537    -0.43980
N1760       N  0.64592519  0.67865022  0.99987594    -0.43980
C1761       C  0.95277895  0.51178954  0.93518897    -0.00390
C1762       C  0.94265364  0.50829609  0.48992417    -0.12260
C1763       C  0.94257963  0.47851248  0.51627155     0.01850
C1764       C  0.95226490  0.95108089  0.48771671    -0.00480
C1765       C  0.95749153  0.95373549  0.93116829    -0.12200
C1766       C  0.95798490  0.98381443  0.90472369     0.01730
H1767       H  0.93763373  0.52934225  0.51362451     0.14710
H1768       H  0.96515626  0.93291566  0.90880798     0.14710
C1769       C  0.96779065  0.98542680  0.84801535     0.36360
C1770       C  0.93600910  0.47744523  0.57417042     0.36270
N1771       N  0.97568199  0.98659870  0.80254835    -0.43980
N1772       N  0.93097994  0.47726987  0.62062297    -0.43980
C1773       C  0.52921922  0.70580568  0.98035794    -0.00390
C1774       C  0.54815435  0.73142537  0.95519247    -0.12260
C1775       C  0.54964884  0.76212399  0.97823887     0.01850
C1776       C  0.53165145  0.76785473  0.52735434    -0.00480
C1777       C  0.01597584  0.74145645  0.05492096    -0.12200
C1778       C  0.01444013  0.71100793  0.03233183     0.01730
H1779       H  0.56058094  0.72789785  0.91615612     0.14710
H1780       H  0.00284319  0.74477038  0.59350613     0.14710
C1781       C  0.99560029  0.68629185  0.06296477     0.36360
C1782       C  0.56951134  0.78715710  0.45028417     0.36270
N1783       N  0.98032598  0.66681025  0.08790280    -0.43980
N1784       N  0.58583059  0.80704476  0.42797297    -0.43980
C1785       C  0.85099700  0.89226702  0.75428111    -0.00390
C1786       C  0.87857234  0.87706567  0.78274567    -0.12260
C1787       C  0.91370408  0.87780673  0.76366492     0.01850
C1788       C  0.92239104  0.89366116  0.71406731    -0.00480
C1789       C  0.89488911  0.90960017  0.68620819    -0.12200
C1790       C  0.85971080  0.90927493  0.70598545     0.01730
H1791       H  0.87261340  0.86442870  0.82057113     0.14710
H1792       H  0.90043105  0.92118923  0.64744036     0.14710
C1793       C  0.83269929  0.92486489  0.67422650     0.36360
C1794       C  0.94026998  0.86218630  0.79639452     0.36270
N1795       N  0.81105600  0.93728761  0.64856077    -0.43980
N1796       N  0.96147085  0.84970509  0.82288043    -0.43980
C1797       C  0.67086459  0.87011645  0.73581463    -0.00390
C1798       C  0.64785501  0.89572163  0.74290065    -0.12260
C1799       C  0.61179483  0.89387725  0.72830188     0.01850
C1800       C  0.59716529  0.86644980  0.70226285    -0.00480
C1801       C  0.62011522  0.84085880  0.69377874    -0.12200
C1802       C  0.65631157  0.84227489  0.71090762     0.01730
H1803       H  0.65742555  0.91710786  0.76346519     0.14710
H1804       H  0.60984348  0.81962258  0.67353973     0.14710
C1805       C  0.67782665  0.81500962  0.70193754     0.36360
C1806       C  0.59031638  0.92023056  0.74375225     0.36270
N1807       N  0.69504128  0.79310680  0.69456054    -0.43980
N1808       N  0.57321822  0.94126255  0.75674352    -0.43980
C1809       C  0.84622396  0.84688701  0.96621979    -0.00390
C1810       C  0.85501595  0.81503855  0.97673270    -0.12260
C1811       C  0.88163148  0.80803828  0.51524044     0.01850
C1812       C  0.89780857  0.83275215  0.54597385    -0.00480
C1813       C  0.88740069  0.86403483  0.03791497    -0.12200
C1814       C  0.86399387  0.87156680  0.99605008     0.01730
H1815       H  0.84142840  0.79584748  0.95493846     0.14710
H1816       H  0.90109987  0.88322303  0.05974035     0.14710
C1817       C  0.86099653  0.90506379  0.98223074     0.36360
C1818       C  0.89316307  0.77574581  0.52206498     0.36270
N1819       N  0.85913116  0.93185996  0.97105331    -0.43980
N1820       N  0.90332417  0.75022339  0.52869375    -0.43980
C1821       C  0.65137988  0.91844379  0.91864410    -0.00390
C1822       C  0.64702618  0.93896066  0.96290868    -0.12260
C1823       C  0.61775620  0.93486858  0.49763210     0.01850
C1824       C  0.59168649  0.91102240  0.48603740    -0.00480
C1825       C  0.59483766  0.89272505  0.93885819    -0.12200
C1826       C  0.62465158  0.89537557  0.90656237     0.01730
H1827       H  0.66834555  0.95572663  0.97386149     0.14710
H1828       H  0.57530066  0.87397620  0.92955947     0.14710
C1829       C  0.62992512  0.86993334  0.86852183     0.36360
C1830       C  0.61574846  0.95455605  0.54528576     0.36270
N1831       N  0.63371189  0.84838486  0.84039448    -0.43980
N1832       N  0.61414841  0.97041716  0.58341480    -0.43980
C1833       C  0.78732400  0.97793733  0.95278140    -0.00390
C1834       C  0.78478750  0.97855658  0.50982625    -0.12260
C1835       C  0.78392875  0.00737212  0.53748216     0.01850
C1836       C  0.78710042  0.53640249  0.50791724    -0.00480
C1837       C  0.79407012  0.53565313  0.95175406    -0.12200
C1838       C  0.79387140  0.50675242  0.92388973     0.01730
H1839       H  0.78021477  0.95644272  0.53247848     0.14710
H1840       H  0.79681909  0.55784495  0.92876111     0.14710
C1841       C  0.79634715  0.50774046  0.86526287     0.36360
C1842       C  0.77459931  0.00607219  0.59441619     0.36390
N1843       N  0.79798288  0.50829552  0.81821045    -0.43980
N1844       N  0.76638192  0.00461382  0.63970926    -0.43980
C1845       C  0.71555627  0.72558220  0.49993806    -0.00390
C1846       C  0.70954672  0.75261318  0.53122724    -0.12260
C1847       C  0.70856893  0.78282601  0.50656810     0.01850
C1848       C  0.71383643  0.78611413  0.94972584    -0.00480
C1849       C  0.71428361  0.75863547  0.91780205    -0.12200
C1850       C  0.71507085  0.72843051  0.94238079     0.01730
H1851       H  0.70840870  0.75056044  0.57529852     0.14710
H1852       H  0.71706133  0.76077317  0.87393375     0.14710
C1853       C  0.71711126  0.70097442  0.90762304     0.36360
C1854       C  0.70385683  0.81013671  0.54082084     0.36270
N1855       N  0.71869185  0.67898459  0.87978265    -0.43980
N1856       N  0.70001894  0.83205352  0.56813538    -0.43980
loop_ 
_geom_bond_atom_site_label_1 
_geom_bond_atom_site_label_2 
_geom_bond_distance 
_geom_bond_site_symmetry_2 
_ccdc_geom_bond_type 
O1          Cr19   1.904       .  S
O1            C9   1.258       .  A
O2          Cr19   1.977       .  S
O2            C3   1.250       .  A
C3            O4   1.250       .  A
C3          C209   1.475       .  S
O4          Cr20   1.986       .  S
O5          Cr20   2.028       .  S
O5            C6   1.269       .  A
C6            O7   1.260       .  A
C6          C161   1.505       .  S
O7          Cr21   1.980       .  S
O8          Cr21   2.071       .  S
O8            C9   1.290       .  A
C9          C185   1.476       .  S
O10         Cr19   1.980       .  S
O10          C18   1.248       .  A
O11         Cr19   1.910       .  S
O11          C12   1.259       .  A
C12          O13   1.285       .  A
C12         C197   1.454       .  S
O13         Cr20   2.060       .  S
O14         Cr20   1.959       .  S
O14          C15   1.258       .  A
C15          O16   1.275       .  A
C15         C173   1.517       .  S
O16         Cr21   2.044       .  S
O17         Cr21   1.987       .  S
O17          C18   1.250       .  A
C18         C224   1.477       .  S
Cr19         O22   1.764       .  S
Cr20         O22   1.771       .  S
Cr21         O22   1.766       .  S
O23         Cr41   1.935       .  S
O23          C31   1.263       .  A
O24         Cr41   1.980       .  S
O24          C25   1.248       .  A
C25         O954   1.247       .  A
C25         C137   1.495       .  S
O26         Cr42   1.992   1_655  S
O26         C953   1.247       .  A
O27        Cr970   2.011       .  S
O27          C28   1.271       .  A
C28          O29   1.262       .  A
C28          C89   1.507       .  S
O29         Cr43   1.973       .  S
O30         Cr43   2.038       .  S
O30          C31   1.275       .  A
C31         C113   1.464       .  S
O32        Cr969   2.007   1_455  S
O32          C40   1.257       .  A
O33        Cr969   1.908   1_455  S
O33          C34   1.266       .  A
C34          O35   1.284       .  A
C34         C125   1.454       .  S
O35         Cr42   2.039       .  S
O36         Cr42   1.974       .  S
O36          C37   1.255       .  A
C37          O38   1.261       .  A
C37         C101   1.506       .  S
O38        Cr971   2.009   1_455  S
O39         Cr43   1.992       .  S
O39         C968   1.254       .  A
C40         O967   1.254       .  A
C40         C149   1.500       .  S
Cr41        O960   2.007       .  S
Cr41        O961   1.908       .  S
Cr41         O44   1.764       .  S
Cr42        O955   2.011   1_455  S
Cr42        O972   1.782   1_455  S
Cr43        O966   2.009       .  S
Cr43         O44   1.791       .  S
O44        Cr970   1.782       .  S
O45         Cr63   1.962   1_456  S
O45          C53   1.260   1_556  A
O46         Cr63   2.003   1_455  S
O46          C47   1.266       .  A
C47         O976   1.265       .  A
C47         C152   1.501       .  S
O48         Cr64   1.995       .  S
O48         C975   1.265       .  A
O49        Cr992   2.013   1_455  S
O49          C50   1.267       .  A
C50          O51   1.270       .  A
C50         C176   1.515       .  S
O51         Cr65   2.013       .  S
O52         Cr65   1.998       .  S
O52          C53   1.268       .  A
C53         C200   1.474   1_554  S
O54        Cr991   2.011       .  S
O54          C62   1.268       .  A
O55        Cr991   1.979       .  S
O55          C56   1.255       .  A
C56          O57   1.264       .  A
C56         C188   1.452       .  S
O57         Cr64   1.995       .  S
O58         Cr64   2.013       .  S
O58          C59   1.266       .  A
C59          O60   1.262       .  A
C59         C164   1.512       .  S
O60        Cr993   2.010       .  S
O61         Cr65   1.980   1_655  S
O61         C990   1.260       .  A
C62         O989   1.260       .  A
C62         C140   1.485   1_554  S
Cr63        O982   2.011       .  S
Cr63        O983   1.979       .  S
Cr63         O66   1.771   1_655  S
Cr64        O977   2.013       .  S
Cr64        O994   1.775       .  S
Cr65        O988   2.010   1_455  S
Cr65         O66   1.769       .  S
O66        Cr992   1.775   1_455  S
O67         Cr85   1.905       .  S
O67          C75   1.261       .  A
O68         Cr85   1.982       .  S
O68          C69   1.251       .  A
C69          O70   1.252       .  A
C69         C221   1.477   1_554  S
O70         Cr86   1.987       .  S
O71         Cr86   2.016       .  S
O71          C72   1.266       .  A
C72          O73   1.259       .  A
C72         C104   1.501       .  S
O73         Cr87   1.968       .  S
O74         Cr87   2.058       .  S
O74          C75   1.285       .  A
C75         C128   1.472       .  S
O76         Cr85   1.980       .  S
O76          C84   1.248       .  A
O77         Cr85   1.914       .  S
O77          C78   1.260       .  A
C78          O79   1.279       .  A
C78         C116   1.448       .  S
O79         Cr86   2.043       .  S
O80         Cr86   1.968       .  S
O80          C81   1.261       .  A
C81          O82   1.269       .  A
C81          C92   1.511       .  S
O82         Cr87   2.021       .  S
O83         Cr87   1.979       .  S
O83          C84   1.247       .  A
C84         C212   1.475       .  S
Cr85         O88   1.769       .  S
Cr86         O88   1.776       .  S
Cr87         O88   1.771       .  S
C89          C90   1.411       .  A
C89          C94   1.420       .  A
C90          C91   1.414       .  A
C90          H95   1.084       .  S
C91          C92   1.420       .  A
C91          C98   1.440       .  S
C92          C93   1.410       .  A
C93          C94   1.400       .  A
C93          H96   1.084       .  S
C94          C97   1.446       .  S
C97          N99   1.157       .  T
C98         N100   1.156       .  T
C101        C102   1.411       .  A
C101        C106   1.422       .  A
C102        C103   1.417       .  A
C102        H107   1.084       .  S
C103        C104   1.418       .  A
C103        C110   1.443       .  S
C104        C105   1.403       .  A
C105        C106   1.398       .  A
C105        H108   1.085       .  S
C106        C109   1.445       .  S
C109        N111   1.157       .  T
C110        N112   1.157       .  T
C113        C114   1.399       .  A
C113        C118   1.406       .  A
C114        C347   1.377       .  A
C114        H119   1.087       .  S
C115        C116   1.406       .  A
C115        C346   1.377       .  A
C115        C122   1.441       .  S
C116        C349   1.407   1_554  A
C117        C118   1.404       .  A
C117        C348   1.407       .  A
C117        H352   1.085       .  S
C118        C121   1.441       .  S
H120        C349   1.085       .  S
C121        N123   1.157       .  T
C122        N124   1.155       .  T
C125        C126   1.394       .  A
C125        C130   1.405       .  A
C126        C127   1.376       .  A
C126        H131   1.088       .  S
C127        C360   1.416       .  A
C127        C134   1.448       .  S
C128        C129   1.411   1_554  A
C128        C359   1.415   1_554  A
C129        C362   1.410       .  A
C129        H132   1.084   1_556  S
C130        C361   1.410       .  A
C130        C133   1.441       .  S
C133        N135   1.157   1_545  T
C134        N136   1.157       .  T
C137        C370   1.404       .  A
C137        C606   1.418   1_545  A
C138        C139   1.399   1_546  A
C138        C369   1.404       .  A
C138        H143   1.085   1_556  S
C139        C604   1.413   1_554  A
C139        C146   1.444       .  S
C140        C603   1.413   1_556  A
C140        C373   1.406       .  A
C141        C142   1.411       .  A
C141        C372   1.406       .  A
C141        H144   1.085       .  S
C142        C601   1.418       .  A
C142        C145   1.443       .  S
C145        N147   1.157       .  T
C146        N148   1.157       .  T
C149        C150   1.411       .  A
C149       C1082   1.419       .  A
C150        C151   1.411       .  A
C150        H155   1.084       .  S
C151        C384   1.415       .  A
C151        C390   1.442       .  S
C152        C383   1.415   1_554  A
C152       C1313   1.408       .  A
C153        C154   1.397       .  A
C153       C1312   1.408       .  A
C153        H388   1.085       .  S
C154       C1077   1.419       .  A
C154        C157   1.446       .  S
H156        C385   1.085       .  S
C157        N159   1.157       .  T
C158        C383   1.442       .  S
C158        N160   1.157       .  T
C161        C162   1.409       .  A
C161        C166   1.412       .  A
C162        C163   1.408       .  A
C162        H167   1.085       .  S
C163        C164   1.416       .  A
C163        C170   1.444       .  S
C164        C165   1.415       .  A
C165        C166   1.416       .  A
C165        H168   1.082       .  S
C166        C169   1.442       .  S
C169        N171   1.157       .  T
C170        N172   1.157       .  T
C173        C174   1.414       .  A
C173        C178   1.417       .  A
C174        C175   1.401       .  A
C174        H179   1.084       .  S
C175        C176   1.416       .  A
C175        C182   1.446       .  S
C176        C177   1.417       .  A
C177        C178   1.422       .  A
C177        H180   1.084       .  S
C178        C181   1.442       .  S
C181        N183   1.157       .  T
C182        N184   1.158       .  T
C185        C186   1.406       .  A
C185        C190   1.421       .  A
C186        C419   1.405       .  A
C186        H191   1.084       .  S
C187        C188   1.409       .  A
C187        C418   1.405   1_554  A
C187        C194   1.442       .  S
C188        C421   1.392       .  A
C189        C190   1.386       .  A
C189        C420   1.392       .  A
C189        H192   1.086       .  S
C190        C193   1.448       .  S
C193        N195   1.157       .  T
C194        N196   1.156       .  T
C197        C198   1.407       .  A
C197        C202   1.407       .  A
C198        C431   1.406       .  A
C198        H203   1.085       .  S
C199        C200   1.409       .  A
C199        C430   1.406       .  A
C199        C206   1.443   1_556  S
C200        C433   1.404       .  A
C201        C202   1.382       .  A
C201        C432   1.404       .  A
C201        H204   1.085       .  S
C202        C205   1.445       .  S
C205        N207   1.157       .  T
C206        N208   1.157       .  T
C209        C442   1.404       .  A
C209        C678   1.410       .  A
C210        C211   1.394       .  A
C210        C441   1.404   1_554  A
C210        H215   1.085       .  S
C211        C676   1.412       .  A
C211        C218   1.444       .  S
C212        C675   1.412       .  A
C212        C445   1.406   1_554  A
C213        C214   1.398       .  A
C213        C444   1.406       .  A
C213        H216   1.085       .  S
C214        C673   1.410   1_545  A
C214        C217   1.442       .  S
C217        N219   1.156       .  T
C218        N220   1.157       .  T
C221        C222   1.402   1_556  A
C221        C458   1.415       .  A
C222        C223   1.399       .  A
C222        H227   1.085       .  S
C223        C456   1.415   1_554  A
C223        C230   1.445       .  S
C224        C225   1.402       .  A
C224        C455   1.415       .  A
C225        C226   1.397       .  A
C225        H228   1.085       .  S
C226        C453   1.415       .  A
C226        C229   1.445       .  S
C229        N231   1.157       .  T
C230        N232   1.157       .  T
O233       Cr251   1.904       .  S
O233        C241   1.258       .  A
O234       Cr251   1.977       .  S
O234        C235   1.250       .  A
C235        O236   1.250       .  A
C235        C441   1.475       .  S
O236       Cr252   1.986       .  S
O237       Cr252   2.028       .  S
O237        C238   1.269       .  A
C238        O239   1.260       .  A
C238        C393   1.505       .  S
O239       Cr253   1.980       .  S
O240       Cr253   2.071       .  S
O240        C241   1.290       .  A
C241        C417   1.476       .  S
O242       Cr251   1.980       .  S
O242        C250   1.248       .  A
O243       Cr251   1.910       .  S
O243        C244   1.259       .  A
C244        O245   1.285       .  A
C244        C429   1.454       .  S
O245       Cr252   2.060       .  S
O246       Cr252   1.959       .  S
O246        C247   1.258       .  A
C247        O248   1.275       .  A
C247        C405   1.517       .  S
O248       Cr253   2.044       .  S
O249       Cr253   1.987       .  S
O249        C250   1.250       .  A
C250        C456   1.477       .  S
Cr251       O254   1.764       .  S
Cr252       O254   1.771       .  S
Cr253       O254   1.766       .  S
O255       Cr273   1.935       .  S
O255        C263   1.263       .  A
O256       Cr273   1.980       .  S
O256        C257   1.248       .  A
C257       O1186   1.247       .  A
C257        C369   1.495       .  S
O258       Cr274   1.992   1_655  S
O258       C1185   1.247       .  A
O259      Cr1202   2.011       .  S
O259        C260   1.271       .  A
C260        O261   1.262       .  A
C260        C321   1.507       .  S
O261       Cr275   1.973       .  S
O262       Cr275   2.038       .  S
O262        C263   1.275       .  A
C263        C345   1.465       .  S
O264      Cr1201   2.007   1_455  S
O264        C272   1.257       .  A
O265      Cr1201   1.908   1_455  S
O265        C266   1.266       .  A
C266        O267   1.283       .  A
C266        C357   1.454       .  S
O267       Cr274   2.039       .  S
O268       Cr274   1.974       .  S
O268        C269   1.255       .  A
C269        O270   1.261       .  A
C269        C333   1.506       .  S
O270      Cr1203   2.009   1_455  S
O271       Cr275   1.992       .  S
O271       C1200   1.254       .  A
C272       O1199   1.254       .  A
C272        C381   1.500       .  S
Cr273      O1192   2.007       .  S
Cr273      O1193   1.908       .  S
Cr273       O276   1.764       .  S
Cr274      O1187   2.011   1_455  S
Cr274      O1204   1.782   1_455  S
Cr275      O1198   2.009       .  S
Cr275       O276   1.792       .  S
O276      Cr1202   1.782       .  S
O277       Cr295   1.962   1_455  S
O277        C285   1.260       .  A
O278       Cr295   2.003   1_455  S
O278        C279   1.266       .  A
C279       O1208   1.265       .  A
C279        C384   1.501       .  S
O280       Cr296   1.994       .  S
O280       C1207   1.265       .  A
O281      Cr1224   2.013   1_455  S
O281        C282   1.267       .  A
C282        O283   1.270       .  A
C282        C408   1.515       .  S
O283       Cr297   2.013       .  S
O284       Cr297   1.998       .  S
O284        C285   1.268       .  A
C285        C432   1.474       .  S
O286      Cr1223   2.011       .  S
O286        C294   1.268       .  A
O287      Cr1223   1.979       .  S
O287        C288   1.255       .  A
C288        O289   1.264       .  A
C288        C420   1.452       .  S
O289       Cr296   1.995       .  S
O290       Cr296   2.013       .  S
O290        C291   1.266       .  A
C291        O292   1.262       .  A
C291        C396   1.512       .  S
O292      Cr1225   2.010       .  S
O293       Cr297   1.980   1_655  S
O293       C1222   1.260       .  A
C294       O1221   1.260       .  A
C294        C372   1.485       .  S
Cr295      O1214   2.011       .  S
Cr295      O1215   1.979       .  S
Cr295       O298   1.771   1_655  S
Cr296      O1209   2.013       .  S
Cr296      O1226   1.775       .  S
Cr297      O1220   2.010   1_455  S
Cr297       O298   1.768       .  S
O298      Cr1224   1.775   1_455  S
O299       Cr317   1.905       .  S
O299        C307   1.261       .  A
O300       Cr317   1.982       .  S
O300        C301   1.251       .  A
C301        O302   1.252       .  A
C301        C453   1.477       .  S
O302       Cr318   1.987       .  S
O303       Cr318   2.016       .  S
O303        C304   1.266       .  A
C304        O305   1.259       .  A
C304        C336   1.501       .  S
O305       Cr319   1.968       .  S
O306       Cr319   2.058       .  S
O306        C307   1.285       .  A
C307        C360   1.472       .  S
O308       Cr317   1.980       .  S
O308        C316   1.248       .  A
O309       Cr317   1.914       .  S
O309        C310   1.260       .  A
C310        O311   1.279       .  A
C310        C348   1.448       .  S
O311       Cr318   2.043       .  S
O312       Cr318   1.968       .  S
O312        C313   1.261       .  A
C313        O314   1.269       .  A
C313        C324   1.511       .  S
O314       Cr319   2.021       .  S
O315       Cr319   1.979       .  S
O315        C316   1.247       .  A
C316        C444   1.475       .  S
Cr317       O320   1.769       .  S
Cr318       O320   1.776       .  S
Cr319       O320   1.771       .  S
C321        C322   1.411       .  A
C321        C326   1.420       .  A
C322        C323   1.414       .  A
C322        H327   1.084       .  S
C323        C324   1.420       .  A
C323        C330   1.440       .  S
C324        C325   1.410       .  A
C325        C326   1.400       .  A
C325        H328   1.084       .  S
C326        C329   1.446       .  S
C329        N331   1.157       .  T
C330        N332   1.156       .  T
C333        C334   1.411       .  A
C333        C338   1.422       .  A
C334        C335   1.417       .  A
C334        H339   1.084       .  S
C335        C336   1.418       .  A
C335        C342   1.443       .  S
C336        C337   1.403       .  A
C337        C338   1.398       .  A
C337        H340   1.085       .  S
C338        C341   1.445       .  S
C341        N343   1.157       .  T
C342        N344   1.157       .  T
C345        C346   1.399   1_556  A
C345        C350   1.406       .  A
C346        H351   1.087       .  S
C347        C348   1.406       .  A
C347        C354   1.442       .  S
C349        C350   1.404       .  A
C350        C353   1.441       .  S
C353        N355   1.157       .  T
C354        N356   1.155       .  T
C357        C358   1.394       .  A
C357        C362   1.405       .  A
C358        C359   1.376       .  A
C358        H363   1.088       .  S
C359        C366   1.448       .  S
C360        C361   1.411       .  A
C361        H364   1.084       .  S
C362        C365   1.441       .  S
C365        N367   1.157   1_545  T
C366        N368   1.157       .  T
C369        C838   1.418   1_545  A
C370        C371   1.399   1_545  A
C370        H375   1.085       .  S
C371        C836   1.413       .  A
C371        C378   1.444       .  S
C372        C835   1.413       .  A
C373        C374   1.411       .  A
C373        H376   1.085       .  S
C374        C833   1.418       .  A
C374        C377   1.443       .  S
C377        N379   1.157       .  T
C378        N380   1.157       .  T
C381        C382   1.411       .  A
C381       C1314   1.419   1_556  A
C382        C383   1.411       .  A
C382        H387   1.084       .  S
C384       C1081   1.408       .  A
C385       C1080   1.408       .  A
C385        C386   1.397       .  A
C386       C1309   1.419   1_554  A
C386        C389   1.446       .  S
C389        N391   1.157       .  T
C390        N392   1.157       .  T
C393        C394   1.409       .  A
C393        C398   1.412       .  A
C394        C395   1.408       .  A
C394        H399   1.085       .  S
C395        C396   1.416       .  A
C395        C402   1.444       .  S
C396        C397   1.415       .  A
C397        C398   1.416       .  A
C397        H400   1.082       .  S
C398        C401   1.442       .  S
C401        N403   1.157       .  T
C402        N404   1.157       .  T
C405        C406   1.414       .  A
C405        C410   1.417       .  A
C406        C407   1.401       .  A
C406        H411   1.084       .  S
C407        C408   1.416       .  A
C407        C414   1.446       .  S
C408        C409   1.417       .  A
C409        C410   1.422       .  A
C409        H412   1.084       .  S
C410        C413   1.442       .  S
C413        N415   1.157       .  T
C414        N416   1.158       .  T
C417        C418   1.406       .  A
C417        C422   1.421       .  A
C418        H423   1.084       .  S
C419        C420   1.409       .  A
C419        C426   1.442       .  S
C421        C422   1.386   1_554  A
C421        H424   1.086       .  S
C422        C425   1.448       .  S
C425        N427   1.157       .  T
C426        N428   1.156       .  T
C429        C430   1.407       .  A
C429        C434   1.407       .  A
C430        H435   1.085       .  S
C431        C432   1.409       .  A
C431        C438   1.443       .  S
C433        C434   1.382       .  A
C433        H436   1.085       .  S
C434        C437   1.445       .  S
C437        N439   1.157       .  T
C438        N440   1.157       .  T
C441        C910   1.410       .  A
C442        C443   1.394       .  A
C442        H447   1.085       .  S
C443        C908   1.412       .  A
C443        C450   1.444       .  S
C444        C907   1.412       .  A
C445        C446   1.398       .  A
C445        H448   1.085       .  S
C446        C905   1.410   1_545  A
C446        C449   1.442       .  S
C449        N451   1.156       .  T
C450        N452   1.157       .  T
C453        C454   1.402       .  A
C454        C455   1.398       .  A
C454        H459   1.085       .  S
C455        C462   1.445       .  S
C456        C457   1.402       .  A
C457        C458   1.397       .  A
C457        H460   1.085       .  S
C458        C461   1.445       .  S
C461        N463   1.157       .  T
C462        N464   1.157       .  T
O465       Cr483   1.904       .  S
O465        C473   1.258       .  A
O466       Cr483   1.977       .  S
O466        C467   1.250       .  A
C467        O468   1.250       .  A
C467        C673   1.475       .  S
O468       Cr484   1.986       .  S
O469       Cr484   2.028       .  S
O469        C470   1.269       .  A
C470        O471   1.260       .  A
C470        C625   1.505       .  S
O471       Cr485   1.980       .  S
O472       Cr485   2.071       .  S
O472        C473   1.290       .  A
C473        C649   1.476       .  S
O474       Cr483   1.980       .  S
O474        C482   1.248       .  A
O475       Cr483   1.910       .  S
O475        C476   1.259       .  A
C476        O477   1.285       .  A
C476        C661   1.454       .  S
O477       Cr484   2.060       .  S
O478       Cr484   1.959       .  S
O478        C479   1.258       .  A
C479        O480   1.275       .  A
C479        C637   1.517       .  S
O480       Cr485   2.044       .  S
O481       Cr485   1.987       .  S
O481        C482   1.250       .  A
C482        C688   1.477       .  S
Cr483       O486   1.764       .  S
Cr484       O486   1.771       .  S
Cr485       O486   1.766       .  S
O487       Cr505   1.935       .  S
O487        C495   1.263       .  A
O488       Cr505   1.980       .  S
O488        C489   1.248       .  A
C489       O1418   1.247       .  A
C489        C601   1.495       .  S
O490       Cr506   1.992   1_655  S
O490       C1417   1.247       .  A
O491      Cr1434   2.011       .  S
O491        C492   1.271       .  A
C492        O493   1.262       .  A
C492        C553   1.507       .  S
O493       Cr507   1.973       .  S
O494       Cr507   2.038       .  S
O494        C495   1.275       .  A
C495        C577   1.464       .  S
O496      Cr1433   2.007   1_455  S
O496        C504   1.257       .  A
O497      Cr1433   1.908   1_455  S
O497        C498   1.266       .  A
C498        O499   1.284       .  A
C498        C589   1.454       .  S
O499       Cr506   2.039       .  S
O500       Cr506   1.974       .  S
O500        C501   1.255       .  A
C501        O502   1.261       .  A
C501        C565   1.506       .  S
O502      Cr1435   2.009   1_455  S
O503       Cr507   1.992       .  S
O503       C1432   1.254       .  A
C504       O1431   1.254       .  A
C504        C613   1.500       .  S
Cr505      O1424   2.007       .  S
Cr505      O1425   1.908       .  S
Cr505       O508   1.764       .  S
Cr506      O1419   2.011   1_455  S
Cr506      O1436   1.782   1_455  S
Cr507      O1430   2.009       .  S
Cr507       O508   1.791       .  S
O508      Cr1434   1.782       .  S
O509       Cr527   1.962   1_456  S
O509        C517   1.260   1_556  A
O510       Cr527   2.003   1_455  S
O510        C511   1.266       .  A
C511       O1440   1.265       .  A
C511        C616   1.501       .  S
O512       Cr528   1.995       .  S
O512       C1439   1.265       .  A
O513      Cr1456   2.013   1_455  S
O513        C514   1.267       .  A
C514        O515   1.270       .  A
C514        C640   1.515       .  S
O515       Cr529   2.013       .  S
O516       Cr529   1.998       .  S
O516        C517   1.268       .  A
C517        C664   1.474   1_554  S
O518      Cr1455   2.011       .  S
O518        C526   1.268       .  A
O519      Cr1455   1.979       .  S
O519        C520   1.255       .  A
C520        O521   1.264       .  A
C520        C652   1.452       .  S
O521       Cr528   1.995       .  S
O522       Cr528   2.013       .  S
O522        C523   1.266       .  A
C523        O524   1.262       .  A
C523        C628   1.512       .  S
O524      Cr1457   2.010       .  S
O525       Cr529   1.980   1_655  S
O525       C1454   1.260       .  A
C526       O1453   1.260       .  A
C526        C604   1.485   1_554  S
Cr527      O1446   2.011       .  S
Cr527      O1447   1.979       .  S
Cr527       O530   1.771   1_655  S
Cr528      O1441   2.013       .  S
Cr528      O1458   1.775       .  S
Cr529      O1452   2.010   1_455  S
Cr529       O530   1.769       .  S
O530      Cr1456   1.775   1_455  S
O531       Cr549   1.905       .  S
O531        C539   1.261       .  A
O532       Cr549   1.982       .  S
O532        C533   1.251       .  A
C533        O534   1.252       .  A
C533        C685   1.477   1_554  S
O534       Cr550   1.987       .  S
O535       Cr550   2.016       .  S
O535        C536   1.266       .  A
C536        O537   1.259       .  A
C536        C568   1.501       .  S
O537       Cr551   1.968       .  S
O538       Cr551   2.058       .  S
O538        C539   1.285       .  A
C539        C592   1.472       .  S
O540       Cr549   1.980       .  S
O540        C548   1.248       .  A
O541       Cr549   1.914       .  S
O541        C542   1.260       .  A
C542        O543   1.279       .  A
C542        C580   1.448       .  S
O543       Cr550   2.043       .  S
O544       Cr550   1.968       .  S
O544        C545   1.261       .  A
C545        O546   1.269       .  A
C545        C556   1.511       .  S
O546       Cr551   2.021       .  S
O547       Cr551   1.979       .  S
O547        C548   1.247       .  A
C548        C676   1.475       .  S
Cr549       O552   1.769       .  S
Cr550       O552   1.776       .  S
Cr551       O552   1.771       .  S
C553        C554   1.411       .  A
C553        C558   1.420       .  A
C554        C555   1.414       .  A
C554        H559   1.084       .  S
C555        C556   1.420       .  A
C555        C562   1.440       .  S
C556        C557   1.410       .  A
C557        C558   1.400       .  A
C557        H560   1.084       .  S
C558        C561   1.446       .  S
C561        N563   1.157       .  T
C562        N564   1.156       .  T
C565        C566   1.411       .  A
C565        C570   1.422       .  A
C566        C567   1.417       .  A
C566        H571   1.084       .  S
C567        C568   1.418       .  A
C567        C574   1.443       .  S
C568        C569   1.403       .  A
C569        C570   1.398       .  A
C569        H572   1.085       .  S
C570        C573   1.445       .  S
C573        N575   1.157       .  T
C574        N576   1.157       .  T
C577        C578   1.399       .  A
C577        C582   1.406       .  A
C578        C811   1.377       .  A
C578        H583   1.087       .  S
C579        C810   1.377       .  A
C579        C580   1.406       .  A
C579        C586   1.441       .  S
C580        C813   1.407   1_554  A
C581        C812   1.407       .  A
C581        C582   1.404       .  A
C581        H816   1.085       .  S
C582        C585   1.441       .  S
H584        C813   1.085       .  S
C585        N587   1.157       .  T
C586        N588   1.155       .  T
C589        C590   1.394       .  A
C589        C594   1.405       .  A
C590        C591   1.376       .  A
C590        H595   1.088       .  S
C591        C824   1.416       .  A
C591        C598   1.448       .  S
C592        C823   1.415   1_554  A
C592        C593   1.411   1_554  A
C593        C826   1.410       .  A
C593        H596   1.084   1_556  S
C594        C825   1.410       .  A
C594        C597   1.441       .  S
C597        N599   1.157       .  T
C598        N600   1.157       .  T
C601        C834   1.404       .  A
C602        C833   1.404       .  A
C602        C603   1.399   1_556  A
C602        H607   1.085   1_556  S
C603        C610   1.444       .  S
C604        C837   1.406       .  A
C605        C836   1.406       .  A
C605        C606   1.411       .  A
C605        H608   1.085       .  S
C606        C609   1.443       .  S
C609        N611   1.157       .  T
C610        N612   1.157       .  T
C613        C614   1.411       .  A
C613       C1546   1.419       .  A
C614        C615   1.411       .  A
C614        H619   1.084       .  S
C615        C848   1.415       .  A
C615        C854   1.442       .  S
C616        C847   1.415   1_554  A
C616       C1777   1.408       .  A
C617       C1776   1.408       .  A
C617        C618   1.397       .  A
C617        H852   1.085       .  S
C618       C1541   1.419       .  A
C618        C621   1.446       .  S
H620        C849   1.085       .  S
C621        N623   1.157       .  T
C622        C847   1.442       .  S
C622        N624   1.157       .  T
C625        C626   1.409       .  A
C625        C630   1.412       .  A
C626        C627   1.408       .  A
C626        H631   1.085       .  S
C627        C628   1.416       .  A
C627        C634   1.444       .  S
C628        C629   1.415       .  A
C629        C630   1.416       .  A
C629        H632   1.082       .  S
C630        C633   1.442       .  S
C633        N635   1.157       .  T
C634        N636   1.157       .  T
C637        C638   1.414       .  A
C637        C642   1.417       .  A
C638        C639   1.401       .  A
C638        H643   1.084       .  S
C639        C640   1.416       .  A
C639        C646   1.446       .  S
C640        C641   1.417       .  A
C641        C642   1.422       .  A
C641        H644   1.084       .  S
C642        C645   1.442       .  S
C645        N647   1.157       .  T
C646        N648   1.158       .  T
C649        C650   1.406       .  A
C649        C654   1.421       .  A
C650        C883   1.405       .  A
C650        H655   1.084       .  S
C651        C882   1.405   1_554  A
C651        C652   1.409       .  A
C651        C658   1.442       .  S
C652        C885   1.392       .  A
C653        C884   1.392       .  A
C653        C654   1.386       .  A
C653        H656   1.086       .  S
C654        C657   1.448       .  S
C657        N659   1.157       .  T
C658        N660   1.156       .  T
C661        C662   1.407       .  A
C661        C666   1.407       .  A
C662        C895   1.406       .  A
C662        H667   1.085       .  S
C663        C894   1.406       .  A
C663        C664   1.409       .  A
C663        C670   1.443   1_556  S
C664        C897   1.404       .  A
C665        C896   1.404       .  A
C665        C666   1.382       .  A
C665        H668   1.085       .  S
C666        C669   1.445       .  S
C669        N671   1.157       .  T
C670        N672   1.157       .  T
C673        C906   1.404       .  A
C674        C905   1.404   1_554  A
C674        C675   1.394   1_565  A
C674        H679   1.085       .  S
C675        C682   1.444       .  S
C676        C909   1.406   1_554  A
C677        C908   1.406       .  A
C677        C678   1.398       .  A
C677        H680   1.085       .  S
C678        C681   1.442       .  S
C681        N683   1.156       .  T
C682        N684   1.157       .  T
C685        C686   1.402   1_556  A
C685        C922   1.415       .  A
C686        C687   1.399       .  A
C686        H691   1.085       .  S
C687        C920   1.415   1_554  A
C687        C694   1.445       .  S
C688        C919   1.415       .  A
C688        C689   1.402       .  A
C689        C690   1.397       .  A
C689        H692   1.085       .  S
C690        C917   1.415       .  A
C690        C693   1.445       .  S
C693        N695   1.157       .  T
C694        N696   1.157       .  T
O697       Cr715   1.904       .  S
O697        C705   1.258       .  A
O698       Cr715   1.977       .  S
O698        C699   1.250       .  A
C699        O700   1.250       .  A
C699        C905   1.475       .  S
O700       Cr716   1.986       .  S
O701       Cr716   2.028       .  S
O701        C702   1.269       .  A
C702        O703   1.260       .  A
C702        C857   1.505       .  S
O703       Cr717   1.980       .  S
O704       Cr717   2.071       .  S
O704        C705   1.290       .  A
C705        C881   1.476       .  S
O706       Cr715   1.980       .  S
O706        C714   1.248       .  A
O707       Cr715   1.910       .  S
O707        C708   1.259       .  A
C708        O709   1.285       .  A
C708        C893   1.454       .  S
O709       Cr716   2.060       .  S
O710       Cr716   1.959       .  S
O710        C711   1.258       .  A
C711        O712   1.275       .  A
C711        C869   1.517       .  S
O712       Cr717   2.044       .  S
O713       Cr717   1.987       .  S
O713        C714   1.250       .  A
C714        C920   1.477       .  S
Cr715       O718   1.764       .  S
Cr716       O718   1.771       .  S
Cr717       O718   1.766       .  S
O719       Cr737   1.935       .  S
O719        C727   1.263       .  A
O720       Cr737   1.980       .  S
O720        C721   1.248       .  A
C721       O1650   1.247       .  A
C721        C833   1.495       .  S
O722       Cr738   1.992   1_655  S
O722       C1649   1.247       .  A
O723      Cr1666   2.011       .  S
O723        C724   1.271       .  A
C724        O725   1.262       .  A
C724        C785   1.507       .  S
O725       Cr739   1.973       .  S
O726       Cr739   2.038       .  S
O726        C727   1.275       .  A
C727        C809   1.465       .  S
O728      Cr1665   2.007   1_455  S
O728        C736   1.257       .  A
O729      Cr1665   1.908   1_455  S
O729        C730   1.266       .  A
C730        O731   1.283       .  A
C730        C821   1.454       .  S
O731       Cr738   2.039       .  S
O732       Cr738   1.974       .  S
O732        C733   1.255       .  A
C733        O734   1.261       .  A
C733        C797   1.506       .  S
O734      Cr1667   2.009   1_455  S
O735       Cr739   1.992       .  S
O735       C1664   1.254       .  A
C736       O1663   1.254       .  A
C736        C845   1.500       .  S
Cr737      O1656   2.007       .  S
Cr737      O1657   1.908       .  S
Cr737       O740   1.764       .  S
Cr738      O1651   2.011   1_455  S
Cr738      O1668   1.782   1_455  S
Cr739      O1662   2.009       .  S
Cr739       O740   1.792       .  S
O740      Cr1666   1.782       .  S
O741       Cr759   1.962   1_455  S
O741        C749   1.260       .  A
O742       Cr759   2.003   1_455  S
O742        C743   1.266       .  A
C743       O1672   1.265       .  A
C743        C848   1.501       .  S
O744       Cr760   1.994       .  S
O744       C1671   1.265       .  A
O745      Cr1688   2.013   1_455  S
O745        C746   1.267       .  A
C746        O747   1.270       .  A
C746        C872   1.515       .  S
O747       Cr761   2.013       .  S
O748       Cr761   1.998       .  S
O748        C749   1.268       .  A
C749        C896   1.474       .  S
O750      Cr1687   2.011       .  S
O750        C758   1.268       .  A
O751      Cr1687   1.979       .  S
O751        C752   1.255       .  A
C752        O753   1.264       .  A
C752        C884   1.452       .  S
O753       Cr760   1.995       .  S
O754       Cr760   2.013       .  S
O754        C755   1.266       .  A
C755        O756   1.262       .  A
C755        C860   1.512       .  S
O756      Cr1689   2.010       .  S
O757       Cr761   1.980   1_655  S
O757       C1686   1.260       .  A
C758       O1685   1.260       .  A
C758        C836   1.485       .  S
Cr759      O1678   2.011       .  S
Cr759      O1679   1.979       .  S
Cr759       O762   1.771   1_655  S
Cr760      O1673   2.013       .  S
Cr760      O1690   1.775       .  S
Cr761      O1684   2.010   1_455  S
Cr761       O762   1.768       .  S
O762      Cr1688   1.775   1_455  S
O763       Cr781   1.905       .  S
O763        C771   1.261       .  A
O764       Cr781   1.982       .  S
O764        C765   1.251       .  A
C765        O766   1.252       .  A
C765        C917   1.477       .  S
O766       Cr782   1.987       .  S
O767       Cr782   2.016       .  S
O767        C768   1.266       .  A
C768        O769   1.259       .  A
C768        C800   1.501       .  S
O769       Cr783   1.968       .  S
O770       Cr783   2.058       .  S
O770        C771   1.285       .  A
C771        C824   1.472       .  S
O772       Cr781   1.980       .  S
O772        C780   1.248       .  A
O773       Cr781   1.914       .  S
O773        C774   1.260       .  A
C774        O775   1.279       .  A
C774        C812   1.448       .  S
O775       Cr782   2.043       .  S
O776       Cr782   1.968       .  S
O776        C777   1.261       .  A
C777        O778   1.269       .  A
C777        C788   1.511       .  S
O778       Cr783   2.021       .  S
O779       Cr783   1.979       .  S
O779        C780   1.247       .  A
C780        C908   1.475       .  S
Cr781       O784   1.769       .  S
Cr782       O784   1.776       .  S
Cr783       O784   1.771       .  S
C785        C786   1.411       .  A
C785        C790   1.420       .  A
C786        C787   1.414       .  A
C786        H791   1.084       .  S
C787        C788   1.420       .  A
C787        C794   1.440       .  S
C788        C789   1.410       .  A
C789        C790   1.400       .  A
C789        H792   1.084       .  S
C790        C793   1.446       .  S
C793        N795   1.157       .  T
C794        N796   1.156       .  T
C797        C798   1.411       .  A
C797        C802   1.422       .  A
C798        C799   1.417       .  A
C798        H803   1.084       .  S
C799        C800   1.418       .  A
C799        C806   1.443       .  S
C800        C801   1.403       .  A
C801        C802   1.398       .  A
C801        H804   1.085       .  S
C802        C805   1.445       .  S
C805        N807   1.157       .  T
C806        N808   1.157       .  T
C809        C810   1.399   1_556  A
C809        C814   1.406       .  A
C810        H815   1.087       .  S
C811        C812   1.406       .  A
C811        C818   1.442       .  S
C813        C814   1.404       .  A
C814        C817   1.441       .  S
C817        N819   1.157       .  T
C818        N820   1.155       .  T
C821        C822   1.394       .  A
C821        C826   1.405       .  A
C822        C823   1.376       .  A
C822        H827   1.088       .  S
C823        C830   1.448       .  S
C824        C825   1.411       .  A
C825        H828   1.084       .  S
C826        C829   1.441       .  S
C829        N831   1.157       .  T
C830        N832   1.157       .  T
C834        C835   1.399       .  A
C834        H839   1.085       .  S
C835        C842   1.444       .  S
C837        C838   1.411       .  A
C837        H840   1.085       .  S
C838        C841   1.443       .  S
C841        N843   1.157       .  T
C842        N844   1.157       .  T
C845        C846   1.411       .  A
C845       C1778   1.419   1_556  A
C846        C847   1.411       .  A
C846        H851   1.084       .  S
C848       C1545   1.408       .  A
C849       C1544   1.408       .  A
C849        C850   1.397       .  A
C850       C1773   1.419   1_554  A
C850        C853   1.446       .  S
C853        N855   1.157       .  T
C854        N856   1.157       .  T
C857        C858   1.409       .  A
C857        C862   1.412       .  A
C858        C859   1.408       .  A
C858        H863   1.085       .  S
C859        C860   1.416       .  A
C859        C866   1.444       .  S
C860        C861   1.415       .  A
C861        C862   1.416       .  A
C861        H864   1.082       .  S
C862        C865   1.442       .  S
C865        N867   1.157       .  T
C866        N868   1.157       .  T
C869        C870   1.414       .  A
C869        C874   1.417       .  A
C870        C871   1.401       .  A
C870        H875   1.084       .  S
C871        C872   1.416       .  A
C871        C878   1.446       .  S
C872        C873   1.417       .  A
C873        C874   1.422       .  A
C873        H876   1.084       .  S
C874        C877   1.442       .  S
C877        N879   1.157       .  T
C878        N880   1.158       .  T
C881        C882   1.406       .  A
C881        C886   1.421       .  A
C882        H887   1.084       .  S
C883        C884   1.409       .  A
C883        C890   1.442       .  S
C885        C886   1.386   1_554  A
C885        H888   1.086       .  S
C886        C889   1.448       .  S
C889        N891   1.157       .  T
C890        N892   1.156       .  T
C893        C894   1.407       .  A
C893        C898   1.407       .  A
C894        H899   1.085       .  S
C895        C896   1.409       .  A
C895        C902   1.443       .  S
C897        C898   1.382       .  A
C897        H900   1.085       .  S
C898        C901   1.445       .  S
C901        N903   1.157       .  T
C902        N904   1.157       .  T
C906        C907   1.394   1_565  A
C906        H911   1.085       .  S
C907        C914   1.444       .  S
C909        C910   1.398       .  A
C909        H912   1.085       .  S
C910        C913   1.442       .  S
C913        N915   1.156       .  T
C914        N916   1.157       .  T
C917        C918   1.402       .  A
C918        C919   1.398       .  A
C918        H923   1.085       .  S
C919        C926   1.445       .  S
C920        C921   1.402       .  A
C921        C922   1.397       .  A
C921        H924   1.085       .  S
C922        C925   1.445       .  S
C925        N927   1.157       .  T
C926        N928   1.157       .  T
O929       Cr947   1.904       .  S
O929        C937   1.258       .  A
O930       Cr947   1.977       .  S
O930        C931   1.250       .  A
C931        O932   1.250       .  A
C931       C1137   1.475       .  S
O932       Cr948   1.986       .  S
O933       Cr948   2.028       .  S
O933        C934   1.269       .  A
C934        O935   1.260       .  A
C934       C1089   1.505       .  S
O935       Cr949   1.980       .  S
O936       Cr949   2.071       .  S
O936        C937   1.290       .  A
C937       C1113   1.476       .  S
O938       Cr947   1.980       .  S
O938        C946   1.248       .  A
O939       Cr947   1.910       .  S
O939        C940   1.259       .  A
C940        O941   1.285       .  A
C940       C1125   1.454       .  S
O941       Cr948   2.060       .  S
O942       Cr948   1.959       .  S
O942        C943   1.258       .  A
C943        O944   1.275       .  A
C943       C1101   1.517       .  S
O944       Cr949   2.044       .  S
O945       Cr949   1.987       .  S
O945        C946   1.250       .  A
C946       C1152   1.477       .  S
Cr947       O950   1.764       .  S
Cr948       O950   1.771       .  S
Cr949       O950   1.766       .  S
O951       Cr969   1.935       .  S
O951        C959   1.263       .  A
O952       Cr969   1.980       .  S
O952        C953   1.248       .  A
C953       C1065   1.495       .  S
O954       Cr970   1.992       .  S
O955        C956   1.271       .  A
C956        O957   1.262       .  A
C956       C1017   1.507       .  S
O957       Cr971   1.973       .  S
O958       Cr971   2.038       .  S
O958        C959   1.275       .  A
C959       C1041   1.464       .  S
O960        C968   1.257       .  A
O961        C962   1.266       .  A
C962        O963   1.284       .  A
C962       C1053   1.454       .  S
O963       Cr970   2.039       .  S
O964       Cr970   1.974       .  S
O964        C965   1.255       .  A
C965        O966   1.261       .  A
C965       C1029   1.506       .  S
O967       Cr971   1.992   1_455  S
C968       C1077   1.500       .  S
Cr969       O972   1.764       .  S
Cr971       O972   1.791       .  S
O973       Cr991   1.962   1_556  S
O973        C981   1.260   1_556  A
O974       Cr991   2.003       .  S
O974        C975   1.266       .  A
C975       C1080   1.501       .  S
O976       Cr992   1.995   1_455  S
O977        C978   1.267       .  A
C978        O979   1.270       .  A
C978       C1104   1.515       .  S
O979       Cr993   2.013       .  S
O980       Cr993   1.998       .  S
O980        C981   1.268       .  A
C981       C1128   1.474   1_554  S
O982        C990   1.268       .  A
O983        C984   1.255       .  A
C984        O985   1.264       .  A
C984       C1116   1.452       .  S
O985       Cr992   1.995       .  S
O986       Cr992   2.013       .  S
O986        C987   1.266       .  A
C987        O988   1.262       .  A
C987       C1092   1.512       .  S
O989       Cr993   1.980       .  S
C990       C1068   1.485   1_554  S
Cr991       O994   1.771       .  S
Cr993       O994   1.769       .  S
O995      Cr1013   1.905       .  S
O995       C1003   1.261       .  A
O996      Cr1013   1.982       .  S
O996        C997   1.251       .  A
C997        O998   1.252       .  A
C997       C1149   1.477   1_554  S
O998      Cr1014   1.987       .  S
O999      Cr1014   2.016       .  S
O999       C1000   1.266       .  A
C1000      O1001   1.259       .  A
C1000      C1032   1.501       .  S
O1001     Cr1015   1.968       .  S
O1002     Cr1015   2.058       .  S
O1002      C1003   1.285       .  A
C1003      C1056   1.472       .  S
O1004     Cr1013   1.980       .  S
O1004      C1012   1.248       .  A
O1005     Cr1013   1.914       .  S
O1005      C1006   1.260       .  A
C1006      O1007   1.279       .  A
C1006      C1044   1.448       .  S
O1007     Cr1014   2.043       .  S
O1008     Cr1014   1.968       .  S
O1008      C1009   1.261       .  A
C1009      O1010   1.269       .  A
C1009      C1020   1.511       .  S
O1010     Cr1015   2.021       .  S
O1011     Cr1015   1.979       .  S
O1011      C1012   1.247       .  A
C1012      C1140   1.475       .  S
Cr1013     O1016   1.769       .  S
Cr1014     O1016   1.776       .  S
Cr1015     O1016   1.771       .  S
C1017      C1018   1.411       .  A
C1017      C1022   1.420       .  A
C1018      C1019   1.414       .  A
C1018      H1023   1.084       .  S
C1019      C1020   1.420       .  A
C1019      C1026   1.440       .  S
C1020      C1021   1.410       .  A
C1021      C1022   1.400       .  A
C1021      H1024   1.084       .  S
C1022      C1025   1.446       .  S
C1025      N1027   1.157       .  T
C1026      N1028   1.156       .  T
C1029      C1030   1.411       .  A
C1029      C1034   1.422       .  A
C1030      C1031   1.417       .  A
C1030      H1035   1.084       .  S
C1031      C1032   1.418       .  A
C1031      C1038   1.443       .  S
C1032      C1033   1.403       .  A
C1033      C1034   1.398       .  A
C1033      H1036   1.085       .  S
C1034      C1037   1.445       .  S
C1037      N1039   1.157       .  T
C1038      N1040   1.157       .  T
C1041      C1042   1.399       .  A
C1041      C1046   1.406       .  A
C1042      C1275   1.377       .  A
C1042      H1047   1.087       .  S
C1043      C1274   1.377       .  A
C1043      C1044   1.406       .  A
C1043      C1050   1.441       .  S
C1044      C1277   1.407   1_554  A
C1045      C1276   1.407       .  A
C1045      C1046   1.404       .  A
C1045      H1280   1.085       .  S
C1046      C1049   1.441       .  S
H1048      C1277   1.085       .  S
C1049      N1051   1.157       .  T
C1050      N1052   1.155       .  T
C1053      C1054   1.394       .  A
C1053      C1058   1.405       .  A
C1054      C1055   1.376       .  A
C1054      H1059   1.088       .  S
C1055      C1288   1.416       .  A
C1055      C1062   1.448       .  S
C1056      C1287   1.415   1_554  A
C1056      C1057   1.411   1_554  A
C1057      C1290   1.410       .  A
C1057      H1060   1.084   1_556  S
C1058      C1289   1.410       .  A
C1058      C1061   1.441       .  S
C1061      N1063   1.157   1_545  T
C1062      N1064   1.157       .  T
C1065      C1298   1.404       .  A
C1065      C1534   1.418   1_545  A
C1066      C1297   1.404       .  A
C1066      C1067   1.399   1_546  A
C1066      H1071   1.085   1_556  S
C1067      C1532   1.413   1_554  A
C1067      C1074   1.444       .  S
C1068      C1531   1.413   1_556  A
C1068      C1301   1.406       .  A
C1069      C1300   1.406       .  A
C1069      C1070   1.411       .  A
C1069      H1072   1.085       .  S
C1070      C1529   1.418       .  A
C1070      C1073   1.443       .  S
C1073      N1075   1.157       .  T
C1074      N1076   1.157       .  T
C1077      C1078   1.411       .  A
C1078      C1079   1.411       .  A
C1078      H1083   1.084       .  S
C1079      C1312   1.415       .  A
C1079      C1318   1.442       .  S
C1080      C1311   1.415   1_554  A
C1081      C1082   1.397       .  A
C1081      H1316   1.085       .  S
C1082      C1085   1.446   1_455  S
H1084      C1313   1.085       .  S
C1085      N1087   1.157       .  T
C1086      C1311   1.442       .  S
C1086      N1088   1.157       .  T
C1089      C1090   1.409       .  A
C1089      C1094   1.412       .  A
C1090      C1091   1.408       .  A
C1090      H1095   1.085       .  S
C1091      C1092   1.416       .  A
C1091      C1098   1.444       .  S
C1092      C1093   1.415       .  A
C1093      C1094   1.416       .  A
C1093      H1096   1.082       .  S
C1094      C1097   1.442       .  S
C1097      N1099   1.157       .  T
C1098      N1100   1.157       .  T
C1101      C1102   1.414       .  A
C1101      C1106   1.417       .  A
C1102      C1103   1.401       .  A
C1102      H1107   1.084       .  S
C1103      C1104   1.416       .  A
C1103      C1110   1.446       .  S
C1104      C1105   1.417       .  A
C1105      C1106   1.422       .  A
C1105      H1108   1.084       .  S
C1106      C1109   1.442       .  S
C1109      N1111   1.157       .  T
C1110      N1112   1.158       .  T
C1113      C1114   1.406       .  A
C1113      C1118   1.421       .  A
C1114      C1347   1.405       .  A
C1114      H1119   1.084       .  S
C1115      C1346   1.405   1_554  A
C1115      C1116   1.409       .  A
C1115      C1122   1.442       .  S
C1116      C1349   1.392       .  A
C1117      C1348   1.392       .  A
C1117      C1118   1.386       .  A
C1117      H1120   1.086       .  S
C1118      C1121   1.448       .  S
C1121      N1123   1.157       .  T
C1122      N1124   1.156       .  T
C1125      C1126   1.407       .  A
C1125      C1130   1.407       .  A
C1126      C1359   1.406       .  A
C1126      H1131   1.085       .  S
C1127      C1358   1.406       .  A
C1127      C1128   1.409       .  A
C1127      C1134   1.443   1_556  S
C1128      C1361   1.404       .  A
C1129      C1360   1.404       .  A
C1129      C1130   1.382       .  A
C1129      H1132   1.085       .  S
C1130      C1133   1.445       .  S
C1133      N1135   1.157       .  T
C1134      N1136   1.157       .  T
C1137      C1370   1.404       .  A
C1137      C1606   1.410       .  A
C1138      C1369   1.404   1_554  A
C1138      C1139   1.394       .  A
C1138      H1143   1.085       .  S
C1139      C1604   1.412       .  A
C1139      C1146   1.444       .  S
C1140      C1603   1.412       .  A
C1140      C1373   1.406   1_554  A
C1141      C1372   1.406       .  A
C1141      C1142   1.398       .  A
C1141      H1144   1.085       .  S
C1142      C1601   1.410   1_545  A
C1142      C1145   1.442       .  S
C1145      N1147   1.156       .  T
C1146      N1148   1.157       .  T
C1149      C1150   1.402   1_556  A
C1149      C1386   1.415       .  A
C1150      C1151   1.399       .  A
C1150      H1155   1.085       .  S
C1151      C1384   1.415   1_554  A
C1151      C1158   1.445       .  S
C1152      C1383   1.415       .  A
C1152      C1153   1.402       .  A
C1153      C1154   1.397       .  A
C1153      H1156   1.085       .  S
C1154      C1381   1.415       .  A
C1154      C1157   1.445       .  S
C1157      N1159   1.157       .  T
C1158      N1160   1.157       .  T
O1161     Cr1179   1.904       .  S
O1161      C1169   1.258       .  A
O1162     Cr1179   1.977       .  S
O1162      C1163   1.250       .  A
C1163      O1164   1.250       .  A
C1163      C1369   1.475       .  S
O1164     Cr1180   1.986       .  S
O1165     Cr1180   2.028       .  S
O1165      C1166   1.269       .  A
C1166      O1167   1.260       .  A
C1166      C1321   1.505       .  S
O1167     Cr1181   1.980       .  S
O1168     Cr1181   2.071       .  S
O1168      C1169   1.290       .  A
C1169      C1345   1.476       .  S
O1170     Cr1179   1.980       .  S
O1170      C1178   1.248       .  A
O1171     Cr1179   1.910       .  S
O1171      C1172   1.259       .  A
C1172      O1173   1.285       .  A
C1172      C1357   1.454       .  S
O1173     Cr1180   2.060       .  S
O1174     Cr1180   1.959       .  S
O1174      C1175   1.258       .  A
C1175      O1176   1.275       .  A
C1175      C1333   1.517       .  S
O1176     Cr1181   2.044       .  S
O1177     Cr1181   1.987       .  S
O1177      C1178   1.250       .  A
C1178      C1384   1.477       .  S
Cr1179     O1182   1.764       .  S
Cr1180     O1182   1.771       .  S
Cr1181     O1182   1.766       .  S
O1183     Cr1201   1.935       .  S
O1183      C1191   1.263       .  A
O1184     Cr1201   1.980       .  S
O1184      C1185   1.248       .  A
C1185      C1297   1.495       .  S
O1186     Cr1202   1.992       .  S
O1187      C1188   1.271       .  A
C1188      O1189   1.262       .  A
C1188      C1249   1.507       .  S
O1189     Cr1203   1.973       .  S
O1190     Cr1203   2.038       .  S
O1190      C1191   1.275       .  A
C1191      C1273   1.465       .  S
O1192      C1200   1.257       .  A
O1193      C1194   1.266       .  A
C1194      O1195   1.283       .  A
C1194      C1285   1.454       .  S
O1195     Cr1202   2.039       .  S
O1196     Cr1202   1.974       .  S
O1196      C1197   1.255       .  A
C1197      O1198   1.261       .  A
C1197      C1261   1.506       .  S
O1199     Cr1203   1.992   1_455  S
C1200      C1309   1.500       .  S
Cr1201     O1204   1.764       .  S
Cr1203     O1204   1.792       .  S
O1205     Cr1223   1.962       .  S
O1205      C1213   1.260       .  A
O1206     Cr1223   2.003       .  S
O1206      C1207   1.266       .  A
C1207      C1312   1.501       .  S
O1208     Cr1224   1.994   1_455  S
O1209      C1210   1.267       .  A
C1210      O1211   1.270       .  A
C1210      C1336   1.515       .  S
O1211     Cr1225   2.013       .  S
O1212     Cr1225   1.998       .  S
O1212      C1213   1.268       .  A
C1213      C1360   1.474       .  S
O1214      C1222   1.268       .  A
O1215      C1216   1.255       .  A
C1216      O1217   1.264       .  A
C1216      C1348   1.452       .  S
O1217     Cr1224   1.995       .  S
O1218     Cr1224   2.013       .  S
O1218      C1219   1.266       .  A
C1219      O1220   1.262       .  A
C1219      C1324   1.512       .  S
O1221     Cr1225   1.980       .  S
C1222      C1300   1.485       .  S
Cr1223     O1226   1.771       .  S
Cr1225     O1226   1.768       .  S
O1227     Cr1245   1.905       .  S
O1227      C1235   1.261       .  A
O1228     Cr1245   1.982       .  S
O1228      C1229   1.251       .  A
C1229      O1230   1.252       .  A
C1229      C1381   1.477       .  S
O1230     Cr1246   1.987       .  S
O1231     Cr1246   2.016       .  S
O1231      C1232   1.266       .  A
C1232      O1233   1.259       .  A
C1232      C1264   1.501       .  S
O1233     Cr1247   1.968       .  S
O1234     Cr1247   2.058       .  S
O1234      C1235   1.285       .  A
C1235      C1288   1.472       .  S
O1236     Cr1245   1.980       .  S
O1236      C1244   1.248       .  A
O1237     Cr1245   1.914       .  S
O1237      C1238   1.260       .  A
C1238      O1239   1.279       .  A
C1238      C1276   1.448       .  S
O1239     Cr1246   2.043       .  S
O1240     Cr1246   1.968       .  S
O1240      C1241   1.261       .  A
C1241      O1242   1.269       .  A
C1241      C1252   1.511       .  S
O1242     Cr1247   2.021       .  S
O1243     Cr1247   1.979       .  S
O1243      C1244   1.247       .  A
C1244      C1372   1.475       .  S
Cr1245     O1248   1.769       .  S
Cr1246     O1248   1.776       .  S
Cr1247     O1248   1.771       .  S
C1249      C1250   1.411       .  A
C1249      C1254   1.420       .  A
C1250      C1251   1.414       .  A
C1250      H1255   1.084       .  S
C1251      C1252   1.420       .  A
C1251      C1258   1.440       .  S
C1252      C1253   1.410       .  A
C1253      C1254   1.400       .  A
C1253      H1256   1.084       .  S
C1254      C1257   1.446       .  S
C1257      N1259   1.157       .  T
C1258      N1260   1.156       .  T
C1261      C1262   1.411       .  A
C1261      C1266   1.422       .  A
C1262      C1263   1.417       .  A
C1262      H1267   1.084       .  S
C1263      C1264   1.418       .  A
C1263      C1270   1.443       .  S
C1264      C1265   1.403       .  A
C1265      C1266   1.398       .  A
C1265      H1268   1.085       .  S
C1266      C1269   1.445       .  S
C1269      N1271   1.157       .  T
C1270      N1272   1.157       .  T
C1273      C1274   1.399   1_556  A
C1273      C1278   1.406       .  A
C1274      H1279   1.087       .  S
C1275      C1276   1.406       .  A
C1275      C1282   1.442       .  S
C1277      C1278   1.404       .  A
C1278      C1281   1.441       .  S
C1281      N1283   1.157       .  T
C1282      N1284   1.155       .  T
C1285      C1286   1.394       .  A
C1285      C1290   1.405       .  A
C1286      C1287   1.376       .  A
C1286      H1291   1.088       .  S
C1287      C1294   1.448       .  S
C1288      C1289   1.411       .  A
C1289      H1292   1.084       .  S
C1290      C1293   1.441       .  S
C1293      N1295   1.157   1_545  T
C1294      N1296   1.157       .  T
C1297      C1766   1.418   1_545  A
C1298      C1299   1.399   1_545  A
C1298      H1303   1.085       .  S
C1299      C1764   1.413       .  A
C1299      C1306   1.444       .  S
C1300      C1763   1.413       .  A
C1301      C1302   1.411       .  A
C1301      H1304   1.085       .  S
C1302      C1761   1.418       .  A
C1302      C1305   1.443       .  S
C1305      N1307   1.157       .  T
C1306      N1308   1.157       .  T
C1309      C1310   1.411       .  A
C1310      C1311   1.411       .  A
C1310      H1315   1.084       .  S
C1313      C1314   1.397       .  A
C1314      C1317   1.446   1_455  S
C1317      N1319   1.157       .  T
C1318      N1320   1.157       .  T
C1321      C1322   1.409       .  A
C1321      C1326   1.412       .  A
C1322      C1323   1.408       .  A
C1322      H1327   1.085       .  S
C1323      C1324   1.416       .  A
C1323      C1330   1.444       .  S
C1324      C1325   1.415       .  A
C1325      C1326   1.416       .  A
C1325      H1328   1.082       .  S
C1326      C1329   1.442       .  S
C1329      N1331   1.157       .  T
C1330      N1332   1.157       .  T
C1333      C1334   1.414       .  A
C1333      C1338   1.417       .  A
C1334      C1335   1.401       .  A
C1334      H1339   1.084       .  S
C1335      C1336   1.416       .  A
C1335      C1342   1.446       .  S
C1336      C1337   1.417       .  A
C1337      C1338   1.422       .  A
C1337      H1340   1.084       .  S
C1338      C1341   1.442       .  S
C1341      N1343   1.157       .  T
C1342      N1344   1.158       .  T
C1345      C1346   1.406       .  A
C1345      C1350   1.421       .  A
C1346      H1351   1.084       .  S
C1347      C1348   1.409       .  A
C1347      C1354   1.442       .  S
C1349      C1350   1.386   1_554  A
C1349      H1352   1.086       .  S
C1350      C1353   1.448       .  S
C1353      N1355   1.157       .  T
C1354      N1356   1.156       .  T
C1357      C1358   1.407       .  A
C1357      C1362   1.407       .  A
C1358      H1363   1.085       .  S
C1359      C1360   1.409       .  A
C1359      C1366   1.443       .  S
C1361      C1362   1.382       .  A
C1361      H1364   1.085       .  S
C1362      C1365   1.445       .  S
C1365      N1367   1.157       .  T
C1366      N1368   1.157       .  T
C1369      C1838   1.410       .  A
C1370      C1371   1.394       .  A
C1370      H1375   1.085       .  S
C1371      C1836   1.412       .  A
C1371      C1378   1.444       .  S
C1372      C1835   1.412       .  A
C1373      C1374   1.398       .  A
C1373      H1376   1.085       .  S
C1374      C1833   1.410   1_545  A
C1374      C1377   1.442       .  S
C1377      N1379   1.156       .  T
C1378      N1380   1.157       .  T
C1381      C1382   1.402       .  A
C1382      C1383   1.398       .  A
C1382      H1387   1.085       .  S
C1383      C1390   1.445       .  S
C1384      C1385   1.402       .  A
C1385      C1386   1.397       .  A
C1385      H1388   1.085       .  S
C1386      C1389   1.445       .  S
C1389      N1391   1.157       .  T
C1390      N1392   1.157       .  T
O1393     Cr1411   1.904       .  S
O1393      C1401   1.258       .  A
O1394     Cr1411   1.977       .  S
O1394      C1395   1.250       .  A
C1395      O1396   1.250       .  A
C1395      C1601   1.475       .  S
O1396     Cr1412   1.986       .  S
O1397     Cr1412   2.028       .  S
O1397      C1398   1.269       .  A
C1398      O1399   1.260       .  A
C1398      C1553   1.505       .  S
O1399     Cr1413   1.980       .  S
O1400     Cr1413   2.071       .  S
O1400      C1401   1.290       .  A
C1401      C1577   1.476       .  S
O1402     Cr1411   1.980       .  S
O1402      C1410   1.248       .  A
O1403     Cr1411   1.910       .  S
O1403      C1404   1.259       .  A
C1404      O1405   1.285       .  A
C1404      C1589   1.454       .  S
O1405     Cr1412   2.060       .  S
O1406     Cr1412   1.959       .  S
O1406      C1407   1.258       .  A
C1407      O1408   1.275       .  A
C1407      C1565   1.517       .  S
O1408     Cr1413   2.044       .  S
O1409     Cr1413   1.987       .  S
O1409      C1410   1.250       .  A
C1410      C1616   1.477       .  S
Cr1411     O1414   1.764       .  S
Cr1412     O1414   1.771       .  S
Cr1413     O1414   1.766       .  S
O1415     Cr1433   1.935       .  S
O1415      C1423   1.263       .  A
O1416     Cr1433   1.980       .  S
O1416      C1417   1.248       .  A
C1417      C1529   1.495       .  S
O1418     Cr1434   1.992       .  S
O1419      C1420   1.271       .  A
C1420      O1421   1.262       .  A
C1420      C1481   1.507       .  S
O1421     Cr1435   1.973       .  S
O1422     Cr1435   2.038       .  S
O1422      C1423   1.275       .  A
C1423      C1505   1.464       .  S
O1424      C1432   1.257       .  A
O1425      C1426   1.266       .  A
C1426      O1427   1.284       .  A
C1426      C1517   1.454       .  S
O1427     Cr1434   2.039       .  S
O1428     Cr1434   1.974       .  S
O1428      C1429   1.255       .  A
C1429      O1430   1.261       .  A
C1429      C1493   1.506       .  S
O1431     Cr1435   1.992   1_455  S
C1432      C1541   1.500       .  S
Cr1433     O1436   1.764       .  S
Cr1435     O1436   1.791       .  S
O1437     Cr1455   1.962   1_556  S
O1437      C1445   1.260   1_556  A
O1438     Cr1455   2.003       .  S
O1438      C1439   1.266       .  A
C1439      C1544   1.501       .  S
O1440     Cr1456   1.995   1_455  S
O1441      C1442   1.267       .  A
C1442      O1443   1.270       .  A
C1442      C1568   1.515       .  S
O1443     Cr1457   2.013       .  S
O1444     Cr1457   1.998       .  S
O1444      C1445   1.268       .  A
C1445      C1592   1.474   1_554  S
O1446      C1454   1.268       .  A
O1447      C1448   1.255       .  A
C1448      O1449   1.264       .  A
C1448      C1580   1.452       .  S
O1449     Cr1456   1.995       .  S
O1450     Cr1456   2.013       .  S
O1450      C1451   1.266       .  A
C1451      O1452   1.262       .  A
C1451      C1556   1.512       .  S
O1453     Cr1457   1.980       .  S
C1454      C1532   1.485   1_554  S
Cr1455     O1458   1.771       .  S
Cr1457     O1458   1.769       .  S
O1459     Cr1477   1.905       .  S
O1459      C1467   1.261       .  A
O1460     Cr1477   1.982       .  S
O1460      C1461   1.251       .  A
C1461      O1462   1.252       .  A
C1461      C1613   1.477   1_554  S
O1462     Cr1478   1.987       .  S
O1463     Cr1478   2.016       .  S
O1463      C1464   1.266       .  A
C1464      O1465   1.259       .  A
C1464      C1496   1.501       .  S
O1465     Cr1479   1.968       .  S
O1466     Cr1479   2.058       .  S
O1466      C1467   1.285       .  A
C1467      C1520   1.472       .  S
O1468     Cr1477   1.980       .  S
O1468      C1476   1.248       .  A
O1469     Cr1477   1.914       .  S
O1469      C1470   1.260       .  A
C1470      O1471   1.279       .  A
C1470      C1508   1.448       .  S
O1471     Cr1478   2.043       .  S
O1472     Cr1478   1.968       .  S
O1472      C1473   1.261       .  A
C1473      O1474   1.269       .  A
C1473      C1484   1.511       .  S
O1474     Cr1479   2.021       .  S
O1475     Cr1479   1.979       .  S
O1475      C1476   1.247       .  A
C1476      C1604   1.475       .  S
Cr1477     O1480   1.769       .  S
Cr1478     O1480   1.776       .  S
Cr1479     O1480   1.771       .  S
C1481      C1482   1.411       .  A
C1481      C1486   1.420       .  A
C1482      C1483   1.414       .  A
C1482      H1487   1.084       .  S
C1483      C1484   1.420       .  A
C1483      C1490   1.440       .  S
C1484      C1485   1.410       .  A
C1485      C1486   1.400       .  A
C1485      H1488   1.084       .  S
C1486      C1489   1.446       .  S
C1489      N1491   1.157       .  T
C1490      N1492   1.156       .  T
C1493      C1494   1.411       .  A
C1493      C1498   1.422       .  A
C1494      C1495   1.417       .  A
C1494      H1499   1.084       .  S
C1495      C1496   1.418       .  A
C1495      C1502   1.443       .  S
C1496      C1497   1.403       .  A
C1497      C1498   1.398       .  A
C1497      H1500   1.085       .  S
C1498      C1501   1.445       .  S
C1501      N1503   1.157       .  T
C1502      N1504   1.157       .  T
C1505      C1506   1.399       .  A
C1505      C1510   1.406       .  A
C1506      C1739   1.377       .  A
C1506      H1511   1.087       .  S
C1507      C1738   1.377       .  A
C1507      C1508   1.406       .  A
C1507      C1514   1.441       .  S
C1508      C1741   1.407   1_554  A
C1509      C1740   1.407       .  A
C1509      C1510   1.404       .  A
C1509      H1744   1.085       .  S
C1510      C1513   1.441       .  S
H1512      C1741   1.085       .  S
C1513      N1515   1.157       .  T
C1514      N1516   1.155       .  T
C1517      C1518   1.394       .  A
C1517      C1522   1.405       .  A
C1518      C1519   1.376       .  A
C1518      H1523   1.088       .  S
C1519      C1752   1.416       .  A
C1519      C1526   1.448       .  S
C1520      C1751   1.415   1_554  A
C1520      C1521   1.411   1_554  A
C1521      C1754   1.410       .  A
C1521      H1524   1.084   1_556  S
C1522      C1753   1.410       .  A
C1522      C1525   1.441       .  S
C1525      N1527   1.157       .  T
C1526      N1528   1.157       .  T
C1529      C1762   1.404       .  A
C1530      C1761   1.404       .  A
C1530      C1531   1.399   1_556  A
C1530      H1535   1.085   1_556  S
C1531      C1538   1.444       .  S
C1532      C1765   1.406       .  A
C1533      C1764   1.406       .  A
C1533      C1534   1.411       .  A
C1533      H1536   1.085       .  S
C1534      C1537   1.443       .  S
C1537      N1539   1.157       .  T
C1538      N1540   1.157       .  T
C1541      C1542   1.411       .  A
C1542      C1543   1.411       .  A
C1542      H1547   1.084       .  S
C1543      C1776   1.415       .  A
C1543      C1782   1.442       .  S
C1544      C1775   1.415   1_554  A
C1545      C1546   1.397       .  A
C1545      H1780   1.085       .  S
C1546      C1549   1.446   1_455  S
H1548      C1777   1.085       .  S
C1549      N1551   1.157       .  T
C1550      C1775   1.442       .  S
C1550      N1552   1.157       .  T
C1553      C1554   1.409       .  A
C1553      C1558   1.412       .  A
C1554      C1555   1.408       .  A
C1554      H1559   1.085       .  S
C1555      C1556   1.416       .  A
C1555      C1562   1.444       .  S
C1556      C1557   1.415       .  A
C1557      C1558   1.416       .  A
C1557      H1560   1.082       .  S
C1558      C1561   1.442       .  S
C1561      N1563   1.157       .  T
C1562      N1564   1.157       .  T
C1565      C1566   1.414       .  A
C1565      C1570   1.417       .  A
C1566      C1567   1.401       .  A
C1566      H1571   1.084       .  S
C1567      C1568   1.416       .  A
C1567      C1574   1.446       .  S
C1568      C1569   1.417       .  A
C1569      C1570   1.422       .  A
C1569      H1572   1.084       .  S
C1570      C1573   1.442       .  S
C1573      N1575   1.157       .  T
C1574      N1576   1.158       .  T
C1577      C1578   1.406       .  A
C1577      C1582   1.421       .  A
C1578      C1811   1.405       .  A
C1578      H1583   1.084       .  S
C1579      C1810   1.405   1_554  A
C1579      C1580   1.409       .  A
C1579      C1586   1.442       .  S
C1580      C1813   1.392       .  A
C1581      C1812   1.392       .  A
C1581      C1582   1.386       .  A
C1581      H1584   1.086       .  S
C1582      C1585   1.448       .  S
C1585      N1587   1.157       .  T
C1586      N1588   1.156       .  T
C1589      C1590   1.407       .  A
C1589      C1594   1.407       .  A
C1590      C1823   1.406       .  A
C1590      H1595   1.085       .  S
C1591      C1822   1.406       .  A
C1591      C1592   1.409       .  A
C1591      C1598   1.443   1_556  S
C1592      C1825   1.404       .  A
C1593      C1824   1.404       .  A
C1593      C1594   1.382       .  A
C1593      H1596   1.085       .  S
C1594      C1597   1.445       .  S
C1597      N1599   1.157       .  T
C1598      N1600   1.157       .  T
C1601      C1834   1.404       .  A
C1602      C1833   1.404   1_554  A
C1602      C1603   1.394   1_565  A
C1602      H1607   1.085       .  S
C1603      C1610   1.444       .  S
C1604      C1837   1.406   1_554  A
C1605      C1836   1.406       .  A
C1605      C1606   1.398       .  A
C1605      H1608   1.085       .  S
C1606      C1609   1.442       .  S
C1609      N1611   1.156       .  T
C1610      N1612   1.157       .  T
C1613      C1614   1.402   1_556  A
C1613      C1850   1.415       .  A
C1614      C1615   1.399       .  A
C1614      H1619   1.085       .  S
C1615      C1848   1.415   1_554  A
C1615      C1622   1.445       .  S
C1616      C1847   1.415       .  A
C1616      C1617   1.402       .  A
C1617      C1618   1.397       .  A
C1617      H1620   1.085       .  S
C1618      C1845   1.415       .  A
C1618      C1621   1.445       .  S
C1621      N1623   1.157       .  T
C1622      N1624   1.157       .  T
O1625     Cr1643   1.904       .  S
O1625      C1633   1.258       .  A
O1626     Cr1643   1.977       .  S
O1626      C1627   1.250       .  A
C1627      O1628   1.250       .  A
C1627      C1833   1.475       .  S
O1628     Cr1644   1.986       .  S
O1629     Cr1644   2.028       .  S
O1629      C1630   1.269       .  A
C1630      O1631   1.260       .  A
C1630      C1785   1.505       .  S
O1631     Cr1645   1.980       .  S
O1632     Cr1645   2.071       .  S
O1632      C1633   1.290       .  A
C1633      C1809   1.476       .  S
O1634     Cr1643   1.980       .  S
O1634      C1642   1.248       .  A
O1635     Cr1643   1.910       .  S
O1635      C1636   1.259       .  A
C1636      O1637   1.285       .  A
C1636      C1821   1.454       .  S
O1637     Cr1644   2.060       .  S
O1638     Cr1644   1.959       .  S
O1638      C1639   1.258       .  A
C1639      O1640   1.275       .  A
C1639      C1797   1.517       .  S
O1640     Cr1645   2.044       .  S
O1641     Cr1645   1.987       .  S
O1641      C1642   1.250       .  A
C1642      C1848   1.477       .  S
Cr1643     O1646   1.764       .  S
Cr1644     O1646   1.771       .  S
Cr1645     O1646   1.766       .  S
O1647     Cr1665   1.935       .  S
O1647      C1655   1.263       .  A
O1648     Cr1665   1.980       .  S
O1648      C1649   1.248       .  A
C1649      C1761   1.495       .  S
O1650     Cr1666   1.992       .  S
O1651      C1652   1.271       .  A
C1652      O1653   1.262       .  A
C1652      C1713   1.507       .  S
O1653     Cr1667   1.973       .  S
O1654     Cr1667   2.038       .  S
O1654      C1655   1.275       .  A
C1655      C1737   1.465       .  S
O1656      C1664   1.257       .  A
O1657      C1658   1.266       .  A
C1658      O1659   1.283       .  A
C1658      C1749   1.454       .  S
O1659     Cr1666   2.039       .  S
O1660     Cr1666   1.974       .  S
O1660      C1661   1.255       .  A
C1661      O1662   1.261       .  A
C1661      C1725   1.506       .  S
O1663     Cr1667   1.992   1_455  S
C1664      C1773   1.500       .  S
Cr1665     O1668   1.764       .  S
Cr1667     O1668   1.792       .  S
O1669     Cr1687   1.962       .  S
O1669      C1677   1.260       .  A
O1670     Cr1687   2.003       .  S
O1670      C1671   1.266       .  A
C1671      C1776   1.501       .  S
O1672     Cr1688   1.994   1_455  S
O1673      C1674   1.267       .  A
C1674      O1675   1.270       .  A
C1674      C1800   1.515       .  S
O1675     Cr1689   2.013       .  S
O1676     Cr1689   1.998       .  S
O1676      C1677   1.268       .  A
C1677      C1824   1.474       .  S
O1678      C1686   1.268       .  A
O1679      C1680   1.255       .  A
C1680      O1681   1.264       .  A
C1680      C1812   1.452       .  S
O1681     Cr1688   1.995       .  S
O1682     Cr1688   2.013       .  S
O1682      C1683   1.266       .  A
C1683      O1684   1.262       .  A
C1683      C1788   1.512       .  S
O1685     Cr1689   1.980       .  S
C1686      C1764   1.485       .  S
Cr1687     O1690   1.771       .  S
Cr1689     O1690   1.768       .  S
O1691     Cr1709   1.905       .  S
O1691      C1699   1.261       .  A
O1692     Cr1709   1.982       .  S
O1692      C1693   1.251       .  A
C1693      O1694   1.252       .  A
C1693      C1845   1.477       .  S
O1694     Cr1710   1.987       .  S
O1695     Cr1710   2.016       .  S
O1695      C1696   1.266       .  A
C1696      O1697   1.259       .  A
C1696      C1728   1.501       .  S
O1697     Cr1711   1.968       .  S
O1698     Cr1711   2.058       .  S
O1698      C1699   1.285       .  A
C1699      C1752   1.472       .  S
O1700     Cr1709   1.980       .  S
O1700      C1708   1.248       .  A
O1701     Cr1709   1.914       .  S
O1701      C1702   1.260       .  A
C1702      O1703   1.279       .  A
C1702      C1740   1.448       .  S
O1703     Cr1710   2.043       .  S
O1704     Cr1710   1.968       .  S
O1704      C1705   1.261       .  A
C1705      O1706   1.269       .  A
C1705      C1716   1.511       .  S
O1706     Cr1711   2.021       .  S
O1707     Cr1711   1.979       .  S
O1707      C1708   1.247       .  A
C1708      C1836   1.475       .  S
Cr1709     O1712   1.769       .  S
Cr1710     O1712   1.776       .  S
Cr1711     O1712   1.771       .  S
C1713      C1714   1.411       .  A
C1713      C1718   1.420       .  A
C1714      C1715   1.414       .  A
C1714      H1719   1.084       .  S
C1715      C1716   1.420       .  A
C1715      C1722   1.440       .  S
C1716      C1717   1.410       .  A
C1717      C1718   1.400       .  A
C1717      H1720   1.084       .  S
C1718      C1721   1.446       .  S
C1721      N1723   1.157       .  T
C1722      N1724   1.156       .  T
C1725      C1726   1.411       .  A
C1725      C1730   1.422       .  A
C1726      C1727   1.417       .  A
C1726      H1731   1.084       .  S
C1727      C1728   1.418       .  A
C1727      C1734   1.443       .  S
C1728      C1729   1.403       .  A
C1729      C1730   1.398       .  A
C1729      H1732   1.085       .  S
C1730      C1733   1.445       .  S
C1733      N1735   1.157       .  T
C1734      N1736   1.157       .  T
C1737      C1738   1.399   1_556  A
C1737      C1742   1.406       .  A
C1738      H1743   1.087       .  S
C1739      C1740   1.406       .  A
C1739      C1746   1.442       .  S
C1741      C1742   1.404       .  A
C1742      C1745   1.441       .  S
C1745      N1747   1.157       .  T
C1746      N1748   1.155       .  T
C1749      C1750   1.394       .  A
C1749      C1754   1.405       .  A
C1750      C1751   1.376       .  A
C1750      H1755   1.088       .  S
C1751      C1758   1.448       .  S
C1752      C1753   1.411       .  A
C1753      H1756   1.084       .  S
C1754      C1757   1.441       .  S
C1757      N1759   1.157       .  T
C1758      N1760   1.157       .  T
C1762      C1763   1.399       .  A
C1762      H1767   1.085       .  S
C1763      C1770   1.444       .  S
C1765      C1766   1.411       .  A
C1765      H1768   1.085       .  S
C1766      C1769   1.443       .  S
C1769      N1771   1.157       .  T
C1770      N1772   1.157       .  T
C1773      C1774   1.411       .  A
C1774      C1775   1.411       .  A
C1774      H1779   1.084       .  S
C1777      C1778   1.397       .  A
C1778      C1781   1.446   1_455  S
C1781      N1783   1.157       .  T
C1782      N1784   1.157       .  T
C1785      C1786   1.409       .  A
C1785      C1790   1.412       .  A
C1786      C1787   1.408       .  A
C1786      H1791   1.085       .  S
C1787      C1788   1.416       .  A
C1787      C1794   1.444       .  S
C1788      C1789   1.415       .  A
C1789      C1790   1.416       .  A
C1789      H1792   1.082       .  S
C1790      C1793   1.442       .  S
C1793      N1795   1.157       .  T
C1794      N1796   1.157       .  T
C1797      C1798   1.414       .  A
C1797      C1802   1.417       .  A
C1798      C1799   1.401       .  A
C1798      H1803   1.084       .  S
C1799      C1800   1.416       .  A
C1799      C1806   1.446       .  S
C1800      C1801   1.417       .  A
C1801      C1802   1.422       .  A
C1801      H1804   1.084       .  S
C1802      C1805   1.442       .  S
C1805      N1807   1.157       .  T
C1806      N1808   1.158       .  T
C1809      C1810   1.406       .  A
C1809      C1814   1.421       .  A
C1810      H1815   1.084       .  S
C1811      C1812   1.409       .  A
C1811      C1818   1.442       .  S
C1813      C1814   1.386   1_554  A
C1813      H1816   1.086       .  S
C1814      C1817   1.448       .  S
C1817      N1819   1.157       .  T
C1818      N1820   1.156       .  T
C1821      C1822   1.407       .  A
C1821      C1826   1.407       .  A
C1822      H1827   1.085       .  S
C1823      C1824   1.409       .  A
C1823      C1830   1.443       .  S
C1825      C1826   1.382       .  A
C1825      H1828   1.085       .  S
C1826      C1829   1.445       .  S
C1829      N1831   1.157       .  T
C1830      N1832   1.157       .  T
C1834      C1835   1.394   1_565  A
C1834      H1839   1.085       .  S
C1835      C1842   1.444       .  S
C1837      C1838   1.398       .  A
C1837      H1840   1.085       .  S
C1838      C1841   1.442       .  S
C1841      N1843   1.156       .  T
C1842      N1844   1.157       .  T
C1845      C1846   1.402       .  A
C1846      C1847   1.398       .  A
C1846      H1851   1.085       .  S
C1847      C1854   1.445       .  S
C1848      C1849   1.402       .  A
C1849      C1850   1.397       .  A
C1849      H1852   1.085       .  S
C1850      C1853   1.445       .  S
C1853      N1855   1.157       .  T
C1854      N1856   1.157       .  T
