geometry optimzed in LAMMPS
_audit_creation_date              2020-11-30 
_audit_creation_method            'lammps2cif' 
_symmetry_space_group_name_H-M    'P1' 
_symmetry_Int_Tables_number       1 
_symmetry_cell_setting            triclinic 
loop_ 
_symmetry_equiv_pos_as_xyz 
  x,y,z 
_cell_length_a                    43.563486614723196 
_cell_length_b                    20.347894792275476 
_cell_length_c                    38.03677234207498 
_cell_angle_alpha                 84.43349266165458 
_cell_angle_beta                  83.02738576353242 
_cell_angle_gamma                 79.32214441715186 
loop_ 
_atom_site_label 
_atom_site_type_symbol 
_atom_site_fract_x 
_atom_site_fract_y 
_atom_site_fract_z 
_atom_site_charge 
O1          O  0.27686862  0.57443959  0.22955358    -0.81720
O2          O  0.27069856  0.87365726  0.24742275    -0.66410
O3          O  0.26506881  0.68963320  0.25824944    -1.13010
C4          C  0.18323086  0.76061199  0.18077031     1.05170
O5          O  0.21929321  0.90195253  0.25573138    -0.79610
O6          O  0.17741138  0.82067172  0.25335337    -0.67190
Ni7        Ni  0.30102246  0.62079536  0.25316607     1.34870
C8          C  0.17919605  0.76358068  0.27021480     0.83910
O9          O  0.29955865  0.76976693  0.28565474    -0.80150
O10         O  0.32601877  0.66491740  0.27803895    -0.90430
C11         C  0.24648274  0.90976909  0.26188111     0.83480
O12         O  0.31892841  0.65831001  0.20903067    -0.68630
O13         O  0.18792698  0.82045682  0.18269019    -0.87920
C14         C  0.32288034  0.71855681  0.20070993     0.84310
C15         C  0.32280559  0.72252450  0.28990359     1.05880
H16         H  0.25177097  0.78961469  0.19354612     0.37680
O17         O  0.24062622  0.78629076  0.21703163    -1.10580
O18         O  0.20197476  0.71586525  0.26542834    -0.67230
Ni19       Ni  0.23279355  0.69664963  0.22631426     1.26350
O20         O  0.30533051  0.76875100  0.21486564    -0.67460
O21         O  0.19958225  0.70862010  0.19554695    -0.79750
C22         C  0.25102749  0.56444747  0.24646645     0.83690
O23         O  0.22683064  0.60538050  0.23862021    -0.66930
Ni24       Ni  0.20557389  0.85869587  0.21843793     1.27450
Ni25       Ni  0.27000992  0.78006957  0.25156455     1.26060
H26         H  0.25569036  0.68274972  0.28238048     0.38240
O27         O  0.02038188  0.08317555  0.23235325    -0.81720
O28         O  0.01894426  0.38091695  0.24658410    -0.66410
O29         O  0.01121221  0.19870237  0.26078810    -1.13010
C30         C  0.43020470  0.26684621  0.18264499     1.05170
O31         O  0.46774089  0.41421484  0.25256827    -0.79610
O32         O  0.42441356  0.33566578  0.25100408    -0.67190
Ni33       Ni  0.04627083  0.12864521  0.25418450     1.34870
C34         C  0.42570173  0.28177177  0.27077391     0.83910
O35         O  0.04598616  0.27721589  0.28687444    -0.80150
O36         O  0.07225879  0.17236259  0.27772057    -0.90430
C37         C  0.99503044  0.41947885  0.25978102     0.83480
O38         O  0.06346720  0.16481982  0.20900833    -0.68630
O39         O  0.43689472  0.32606744  0.18115385    -0.87920
C40         C  0.06829107  0.22461585  0.20076954     0.84310
C41         C  0.06901409  0.22918778  0.29054919     1.05880
H42         H  0.49955982  0.29283025  0.19437873     0.37680
O43         O  0.48803587  0.29339550  0.21771711    -1.10580
O44         O  0.44876614  0.23380371  0.26925264    -0.67230
Ni45       Ni  0.47836694  0.20599776  0.23032558     1.26350
O46         O  0.05232365  0.27431773  0.21650968    -0.67460
O47         O  0.44469760  0.21712210  0.20075148    -0.79750
C48         C  0.49522879  0.07382160  0.25120100     0.83690
O49         O  0.47093861  0.11691126  0.24606950    -0.66930
Ni50       Ni  0.45418866  0.36802682  0.21606834     1.27450
Ni51       Ni  0.01694804  0.28811487  0.25254321     1.26060
H52         H  0.00246650  0.19254783  0.28525137     0.38240
O53         O  0.03294219  0.58471245  0.05001870    -0.81720
O54         O  0.02860728  0.88039611  0.06315465    -0.66410
O55         O  0.01229385  0.70183812  0.08773938    -1.13010
C56         C  0.43127482  0.76755077  0.34690670     1.05170
O57         O  0.47884553  0.91162864  0.07435229    -0.79610
O58         O  0.43488115  0.83215711  0.09423618    -0.67190
Ni59       Ni  0.04631652  0.62743136  0.08792502     1.34870
C60         C  0.43054383  0.77231503  0.10299245     0.83910
O61         O  0.05437397  0.77728700  0.10848142    -0.80150
O62         O  0.06331451  0.66588379  0.12417121    -0.90430
C63         C  0.00419750  0.92178730  0.05635880     0.83480
O64         O  0.07626480  0.66244667  0.05413964    -0.68630
O65         O  0.42861525  0.82547306  0.35831004    -0.87920
C66         C  0.07535918  0.71815909  0.36938594     0.84310
C67         C  0.06919046  0.72520965  0.12499575     1.05880
H68         H  0.49869260  0.80355070  0.35444393     0.37680
O69         O  0.48922786  0.79767534  0.04527873    -1.10580
O70         O  0.44781461  0.72153282  0.08919545    -0.67230
Ni71       Ni  0.48324499  0.70820385  0.05288884     1.26350
O72         O  0.05248254  0.76637619  0.03867910    -0.67460
O73         O  0.45391213  0.71914500  0.35188961    -0.79750
C74         C  0.50560877  0.57875116  0.04332140     0.83690
O75         O  0.48166152  0.61524416  0.05797308    -0.66930
Ni76       Ni  0.45394270  0.86800907  0.05027548     1.27450
Ni77       Ni  0.02149879  0.79008004  0.07715975     1.26060
H78         H  0.00082552  0.70050669  0.11111948     0.38240
O79         O  0.28112424  0.08952060  0.04744091    -0.81720
O80         O  0.27294826  0.38710060  0.06266683    -0.66410
O81         O  0.25973940  0.20635553  0.08546782    -1.13010
C82         C  0.17685703  0.26905284  0.34822910     1.05170
O83         O  0.22303608  0.41908790  0.07335971    -0.79610
O84         O  0.18284273  0.33138761  0.09688129    -0.67190
Ni85       Ni  0.29520182  0.13471625  0.08371841     1.34870
C86         C  0.17865873  0.27095230  0.10439598     0.83910
O87         O  0.30121951  0.28553274  0.10463368    -0.80150
O88         O  0.31337902  0.17476601  0.11846973    -0.90430
C89         C  0.24868773  0.42852603  0.05567856     0.83480
O90         O  0.32220698  0.17276497  0.04748832    -0.68630
O91         O  0.17281074  0.32512804  0.36191442    -0.87920
C92         C  0.31933052  0.22924628  0.36325076     0.84310
C93         C  0.31799524  0.23493842  0.11965528     1.05880
H94         H  0.24293067  0.31102798  0.35377745     0.37680
O95         O  0.23434198  0.30307072  0.04481743    -1.10580
O96         O  0.19511061  0.22222053  0.08810578    -0.67230
Ni97       Ni  0.23020300  0.21227387  0.05123350     1.26350
O98         O  0.29651594  0.27649202  0.03538260    -0.67460
O99         O  0.20075997  0.22287651  0.35068005    -0.79750
C100        C  0.25394168  0.08187671  0.04120635     0.83690
O101        O  0.22973053  0.11858831  0.05521296    -0.66930
Ni102      Ni  0.19825106  0.37068268  0.05179058     1.27450
Ni103      Ni  0.26720533  0.29619884  0.07549675     1.26060
H104        H  0.24881492  0.20310258  0.10905686     0.38240
C105        C  0.38382802  0.31280662  0.14916811    -0.09980
C106        C  0.40273689  0.25652303  0.16476029     0.06220
C107        C  0.39254327  0.19374354  0.16637169    -0.03750
C108        C  0.36449428  0.18919894  0.15292176    -0.08200
C109        C  0.34554753  0.24547549  0.13736170     0.05330
C110        C  0.35575629  0.30823336  0.13572033    -0.03220
Br111      Br  0.33337535  0.39113445  0.11573624    -0.02920
H112        H  0.39056403  0.36168796  0.14787574     0.09240
H113        H  0.35775477  0.14031082  0.15429626     0.07260
Br114      Br  0.41505750  0.11055751  0.18604365    -0.03350
C115        C  0.12088217  0.18361133  0.16836722    -0.09980
C116        C  0.09534651  0.23643603  0.17409075     0.06220
C117        C  0.09820966  0.30067424  0.15741375    -0.03750
C118        C  0.12594879  0.31065723  0.13637313    -0.08200
C119        C  0.15154403  0.25798031  0.13072937     0.05330
C120        C  0.14861907  0.19358574  0.14714537    -0.03220
Br121      Br  0.18187413  0.11723525  0.14340103    -0.02920
H122        H  0.11973265  0.13422130  0.18136948     0.09240
H123        H  0.12702566  0.36010012  0.12340023     0.07260
Br124      Br  0.06486568  0.37706120  0.16041379    -0.03350
C125        C  0.38370090  0.21737081  0.28806372    -0.09980
C126        C  0.39799838  0.27095683  0.29412378     0.06220
C127        C  0.38501676  0.31308531  0.32112838    -0.03750
C128        C  0.35866242  0.29909538  0.34288311    -0.08200
C129        C  0.34506104  0.24397305  0.33768480     0.05330
C130        C  0.35736438  0.20325078  0.30987150    -0.03220
Br131      Br  0.33846580  0.13006268  0.96665544    -0.02920
H132        H  0.39302084  0.18670322  0.26613484     0.09240
H133        H  0.34934524  0.32992798  0.36472962     0.07260
Br134      Br  0.40321901  0.38745332  0.33048132    -0.03350
C135        C  0.13268656  0.21076261  0.01669964    -0.09980
C136        C  0.15089632  0.25553823  0.33160879     0.06220
C137        C  0.14132309  0.29336717  0.30082846    -0.03750
C138        C  0.11334593  0.28638678  0.28884452    -0.08200
C139        C  0.09514899  0.24159384  0.30721248     0.05330
C140        C  0.10491558  0.20295642  0.00440291    -0.03220
Br141      Br  0.08070297  0.14086504  0.03035703    -0.02920
H142        H  0.13968552  0.18327158  0.04113678     0.09240
H143        H  0.10631736  0.31408699  0.26445955     0.07260
Br144      Br  0.16636992  0.35230629  0.27367891    -0.03350
C145        C  0.02618180  0.99972681  0.29571396    -0.09980
C146        C  0.49661628  0.03062535  0.28549611     0.06220
C147        C  0.46996141  0.02561628  0.31026719    -0.03750
C148        C  0.47344185  0.99290144  0.01077964    -0.08200
C149        C  0.00303802  0.96253841  0.02121676     0.05330
C150        C  0.02964403  0.96617929  0.32942206    -0.03220
Br151      Br  0.07176572  0.92813640  0.33846980    -0.02920
H152        H  0.04713297  0.00266760  0.27754574     0.09240
H153        H  0.45243077  0.99004753  0.02885618     0.07260
Br154      Br  0.42770298  0.05925116  0.29993395    -0.03350
C155        C  0.47158636  0.48532158  0.31175988    -0.09980
C156        C  0.99811238  0.46415399  0.28786962     0.06220
C157        C  0.02708609  0.48072239  0.29395745    -0.03750
C158        C  0.02892622  0.51601613  0.32340217    -0.08200
C159        C  0.50245236  0.53607760  0.01434824     0.05330
C160        C  0.47347219  0.51975525  0.00812718    -0.03220
Br161      Br  0.43565157  0.53911907  0.03980371    -0.02920
H162        H  0.44911612  0.47344819  0.30793497     0.09240
H163        H  0.05134020  0.52898981  0.32683264     0.07260
Br164      Br  0.06493771  0.46005264  0.26246772    -0.03350
C165        C  0.34740064  0.78729370  0.15061488    -0.09980
C166        C  0.35026675  0.73075609  0.17503176     0.06220
C167        C  0.38020021  0.68963084  0.17650981    -0.03750
C168        C  0.40604981  0.70458598  0.15339343    -0.08200
C169        C  0.40317837  0.76097822  0.12890057     0.05330
C170        C  0.37327575  0.80223556  0.12747549    -0.03220
Br171      Br  0.36543665  0.87660013  0.09263782    -0.02920
H172        H  0.32475316  0.81956477  0.14914040     0.09240
H173        H  0.42868753  0.67226523  0.15486275     0.07260
Br174      Br  0.38815746  0.61520284  0.21130666    -0.03350
C175        C  0.12729925  0.79981816  0.16973399    -0.09980
C176        C  0.15503382  0.75220036  0.16403509     0.06220
C177        C  0.15343082  0.69410143  0.14734012    -0.03750
C178        C  0.12477299  0.68476458  0.13693663    -0.08200
C179        C  0.09712090  0.73261743  0.14243559     0.05330
C180        C  0.09867371  0.79051407  0.15926499    -0.03220
Br181      Br  0.06214877  0.85683843  0.17032943    -0.02920
H182        H  0.12756740  0.84370738  0.18362347     0.09240
H183        H  0.12445233  0.64094740  0.12300796     0.07260
Br184      Br  0.18987620  0.62767765  0.13607989    -0.03350
C185        C  0.38739258  0.70776707  0.01528052    -0.09980
C186        C  0.40485139  0.75427632  0.33046883     0.06220
C187        C  0.39425379  0.79273536  0.30021934    -0.03750
C188        C  0.36660427  0.78310024  0.28808241    -0.08200
C189        C  0.34912291  0.73661611  0.30628233     0.05330
C190        C  0.35957903  0.69876657  0.00339637    -0.03220
Br191      Br  0.33589716  0.63713689  0.03043399    -0.02760
H192        H  0.39486197  0.68014025  0.03948761     0.09240
H193        H  0.35916669  0.81054852  0.26382901     0.07260
Br194      Br  0.41727078  0.85686365  0.27420162    -0.03350
C195        C  0.10795173  0.69662160  0.31320037    -0.09980
C196        C  0.10248450  0.72837226  0.34479290     0.06220
C197        C  0.12272622  0.77068957  0.01889808    -0.03750
C198        C  0.14777313  0.78199803  0.32746386    -0.08200
C199        C  0.15302510  0.75083174  0.29569885     0.05330
C200        C  0.13302273  0.70788132  0.28846504    -0.03220
Br201      Br  0.13746285  0.66676178  0.24453638    -0.02920
H202        H  0.09229953  0.66429644  0.30746780     0.09240
H203        H  0.16329235  0.81473149  0.99972778     0.07260
Br204      Br  0.11799642  0.81302510  0.06252367    -0.03350
C205        C  0.27870145  0.01012227  0.99187675    -0.09980
C206        C  0.25140479  0.03514098  0.01385010     0.06220
C207        C  0.22260472  0.01903721  0.34015066    -0.03750
C208        C  0.22174472  0.98006933  0.31186981    -0.08200
C209        C  0.24902030  0.95563941  0.28966475     0.05330
C210        C  0.27780724  0.97173863  0.29672194    -0.03220
Br211      Br  0.31686317  0.94623009  0.26803144    -0.02920
H212        H  0.30113414  0.02163873  0.99629413     0.09240
H213        H  0.19935159  0.96787535  0.30770900     0.07260
Br214      Br  0.18346315  0.04575271  0.03516238    -0.03350
C215        C  0.22192453  0.48071877  0.00245065    -0.09980
C216        C  0.24914024  0.46771840  0.02028764     0.06220
C217        C  0.27714189  0.48449596  0.33508908    -0.03750
C218        C  0.27753553  0.51248087  0.29988660    -0.08200
C219        C  0.25029865  0.52579779  0.28206396     0.05330
C220        C  0.22234071  0.50870612  0.30053606    -0.03220
Br221      Br  0.18426382  0.51827247  0.27867499    -0.02920
H222        H  0.20024294  0.46714897  0.01550949     0.09240
H223        H  0.29934413  0.52524451  0.28677446     0.07260
Br224      Br  0.31555985  0.47329961  0.02324219    -0.03350
O225        O  0.27686923  0.57443999  0.56288623    -0.81720
O226        O  0.27069884  0.87365747  0.58075546    -0.66410
O227        O  0.26506906  0.68963346  0.59158242    -1.13010
C228        C  0.18323191  0.76061014  0.51410239     1.05170
O229        O  0.21929349  0.90195368  0.58906299    -0.79610
O230        O  0.17741188  0.82067243  0.58668533    -0.67190
Ni231      Ni  0.30102277  0.62079572  0.58649912     1.34870
C232        C  0.17919623  0.76358155  0.60354687     0.83910
O233        O  0.29955852  0.76976735  0.61898797    -0.80150
O234        O  0.32601876  0.66491780  0.61137235    -0.90430
C235        C  0.24648293  0.90976967  0.59521338     0.83480
O236        O  0.31892901  0.65831043  0.54236390    -0.68630
O237        O  0.18792754  0.82045540  0.51602224    -0.87920
C238        C  0.32288117  0.71855713  0.53404340     0.84310
C239        C  0.32280543  0.72252492  0.62323700     1.05880
H240        H  0.25177178  0.78961421  0.52687870     0.37680
O241        O  0.24062680  0.78629061  0.55036410    -1.10580
O242        O  0.20197477  0.71586560  0.59876057    -0.67230
Ni243      Ni  0.23279416  0.69664941  0.55964694     1.26350
O244        O  0.30533115  0.76875130  0.54819892    -0.67460
O245        O  0.19958344  0.70861884  0.52887920    -0.79750
C246        C  0.25102816  0.56444739  0.57979903     0.83690
O247        O  0.22683125  0.60538039  0.57195301    -0.66930
Ni248      Ni  0.20557442  0.85869573  0.55176971     1.27450
Ni249      Ni  0.27001017  0.78006982  0.58489740     1.26060
H250        H  0.25569045  0.68275003  0.61571340     0.38240
O251        O  0.02038394  0.08317207  0.56568485    -0.81720
O252        O  0.01894510  0.38091367  0.57991817    -0.66410
O253        O  0.01121366  0.19869834  0.59412050    -1.13010
C254        C  0.43020560  0.26684391  0.51597815     1.05170
O255        O  0.46774167  0.41421075  0.58590289    -0.79610
O256        O  0.42441485  0.33566054  0.58433881    -0.67190
Ni257      Ni  0.04627247  0.12864170  0.58751672     1.34870
C258        C  0.42570347  0.28176568  0.60410801     0.83910
O259        O  0.04598725  0.27721180  0.62020755    -0.80150
O260        O  0.07226021  0.17235902  0.61105318    -0.90430
C261        C  0.99503124  0.41947526  0.59311532     0.83480
O262        O  0.06346858  0.16481740  0.54234088    -0.68630
O263        O  0.43689509  0.32606540  0.51448806    -0.87920
C264        C  0.06829226  0.22461357  0.53410234     0.84310
C265        C  0.06901535  0.22918406  0.62388198     1.05880
H266        H  0.49956062  0.29282870  0.52771192     0.37680
O267        O  0.48803681  0.29339271  0.55105040    -1.10580
O268        O  0.44876778  0.23379762  0.60258548    -0.67230
Ni269      Ni  0.47836838  0.20599419  0.56365794     1.26350
O270        O  0.05232470  0.27431524  0.54984262    -0.67460
O271        O  0.44469890  0.21711915  0.53408389    -0.79750
C272        C  0.49523079  0.07381730  0.58453226     0.83690
O273        O  0.47094050  0.11690688  0.57940096    -0.66930
Ni274      Ni  0.45418924  0.36802352  0.54940280     1.27450
Ni275      Ni  0.01694913  0.28811127  0.58587639     1.26060
H276        H  0.00246799  0.19254310  0.61858372     0.38240
O277        O  0.03294226  0.58470195  0.38335501    -0.81720
O278        O  0.02861268  0.88038258  0.39648521    -0.66410
O279        O  0.01229521  0.70182924  0.42107384    -1.13010
C280        C  0.43127444  0.76755161  0.68024001     1.05170
O281        O  0.47885137  0.91161859  0.40768499    -0.79610
O282        O  0.43488462  0.83215250  0.42757017    -0.67190
Ni283      Ni  0.04631694  0.62742048  0.42126125     1.34870
C284        C  0.43054616  0.77231125  0.43632690     0.83910
O285        O  0.05437702  0.77727543  0.44181388    -0.80150
O286        O  0.06331517  0.66587349  0.45750723    -0.90430
C287        C  0.00420326  0.92177556  0.38969056     0.83480
O288        O  0.07626701  0.66243154  0.38747647    -0.68630
O289        O  0.42861446  0.82547366  0.69164373    -0.87920
C290        C  0.07535855  0.71816386  0.70271793     0.84310
C291        C  0.06919222  0.72519900  0.45833005     1.05880
H292        H  0.49869186  0.80355347  0.68777723     0.37680
O293        O  0.48923051  0.79766575  0.37861195    -1.10580
O294        O  0.44781598  0.72152781  0.42253009    -0.67230
Ni295      Ni  0.48324603  0.70819564  0.38622336     1.26350
O296        O  0.05248502  0.76635898  0.37201198    -0.67460
O297        O  0.45391205  0.71914640  0.68522257    -0.79750
C298        C  0.50560871  0.57874299  0.37665691     0.83690
O299        O  0.48166159  0.61523653  0.39130857    -0.66930
Ni300      Ni  0.45394663  0.86800206  0.38360897     1.27450
Ni301      Ni  0.02150196  0.79006897  0.41049236     1.26060
H302        H  0.00082679  0.70050038  0.44445394     0.38240
O303        O  0.28112586  0.08952047  0.38077061    -0.81720
O304        O  0.27294788  0.38709973  0.39600066    -0.66410
O305        O  0.25974115  0.20635277  0.41879931    -1.13010
C306        C  0.17685791  0.26905332  0.68156119     1.05170
O307        O  0.22303563  0.41908614  0.40669167    -0.79610
O308        O  0.18284279  0.33138519  0.43021287    -0.67190
Ni309      Ni  0.29520454  0.13471542  0.41704726     1.34870
C310        C  0.17865960  0.27094955  0.43772840     0.83910
O311        O  0.30122013  0.28553158  0.43796624    -0.80150
O312        O  0.31338277  0.17476398  0.45179795    -0.90430
C313        C  0.24868750  0.42852416  0.38901110     0.83480
O314        O  0.32220790  0.17276699  0.38081586    -0.68630
O315        O  0.17281173  0.32512868  0.69524634    -0.87920
C316        C  0.31933145  0.22924319  0.69658473     0.84310
C317        C  0.31799735  0.23493685  0.45298574     1.05880
H318        H  0.24293187  0.31102729  0.68710982     0.37680
O319        O  0.23434239  0.30306824  0.37814993    -1.10580
O320        O  0.19511205  0.22221734  0.42143894    -0.67230
Ni321      Ni  0.23020389  0.21227091  0.38456593     1.26350
O322        O  0.29651593  0.27649498  0.36871481    -0.67460
O323        O  0.20076078  0.22287689  0.68401220    -0.79750
C324        C  0.25394312  0.08187459  0.37453796     0.83690
O325        O  0.22973203  0.11858509  0.38854550    -0.66930
Ni326      Ni  0.19825126  0.37068001  0.38512228     1.27450
Ni327      Ni  0.26720575  0.29619721  0.40882943     1.26060
H328        H  0.24881737  0.20309762  0.44238860     0.38240
C329        C  0.38382916  0.31280505  0.48250089    -0.09980
C330        C  0.40273806  0.25652113  0.49809282     0.06220
C331        C  0.39254481  0.19374146  0.49970314    -0.03750
C332        C  0.36449615  0.18919698  0.48625250    -0.08200
C333        C  0.34554936  0.24547384  0.47069269     0.05330
C334        C  0.35575774  0.30823186  0.46905234    -0.03220
Br335      Br  0.33337674  0.39113299  0.44906840    -0.02920
H336        H  0.39056491  0.36168653  0.48120924     0.09240
H337        H  0.35775690  0.14030872  0.48762631     0.07260
Br338      Br  0.41505913  0.11055505  0.51937460    -0.03350
C339        C  0.12088359  0.18360932  0.50170072    -0.09980
C340        C  0.09534770  0.23643379  0.50742368     0.06220
C341        C  0.09821056  0.30067164  0.49074612    -0.03750
C342        C  0.12594959  0.31065449  0.46970532    -0.08200
C343        C  0.15154505  0.25797776  0.46406202     0.05330
C344        C  0.14862044  0.19358360  0.48047877    -0.03220
Br345      Br  0.18187585  0.11723363  0.47673532    -0.02920
H346        H  0.11973429  0.13421960  0.51470351     0.09240
H347        H  0.12702620  0.36009710  0.45673191     0.07260
Br348      Br  0.06486624  0.37705801  0.49374565    -0.03350
C349        C  0.38370487  0.21735981  0.62140096    -0.09980
C350        C  0.39800071  0.27094971  0.62745876     0.06220
C351        C  0.38501747  0.31308202  0.65446122    -0.03750
C352        C  0.35866282  0.29909309  0.67621567    -0.08200
C353        C  0.34506252  0.24396830  0.67101906     0.05330
C354        C  0.35736770  0.20324159  0.64320807    -0.03220
Br355      Br  0.33845175  0.13010104  0.29996856    -0.02920
H356        H  0.39302597  0.18668918  0.59947361     0.09240
H357        H  0.34934447  0.32992871  0.69806065     0.07260
Br358      Br  0.40321793  0.38745415  0.66381182    -0.03350
C359        C  0.13268933  0.21075167  0.35002874    -0.09980
C360        C  0.15089712  0.25553827  0.66494119     0.06220
C361        C  0.14132350  0.29336693  0.63416097    -0.03750
C362        C  0.11334655  0.28638497  0.62217708    -0.08200
C363        C  0.09515023  0.24159083  0.64054501     0.05330
C364        C  0.10491720  0.20294848  0.33773347    -0.03220
Br365      Br  0.08070791  0.14084765  0.36368432    -0.02920
H366        H  0.13969081  0.18325321  0.37446308     0.09240
H367        H  0.10631767  0.31408499  0.59779219     0.07260
Br368      Br  0.16636950  0.35230774  0.60701147    -0.03350
C369        C  0.02618396  0.99973761  0.62905043    -0.09980
C370        C  0.49661812  0.03062122  0.61882738     0.06220
C371        C  0.46996160  0.02559939  0.64359380    -0.03750
C372        C  0.47344731  0.99294863  0.34413163    -0.08200
C373        C  0.00304268  0.96253268  0.35455037     0.05330
C374        C  0.02964464  0.96619302  0.66275947    -0.03220
Br375      Br  0.07176688  0.92817441  0.67181611    -0.02920
H376        H  0.04713640  0.00268909  0.61088598     0.09240
H377        H  0.45244058  0.99013057  0.36222102     0.07260
Br378      Br  0.42770363  0.05921186  0.63325168    -0.03350
C379        C  0.47158713  0.48531958  0.64509364    -0.09980
C380        C  0.99811317  0.46415133  0.62120355     0.06220
C381        C  0.02708679  0.48072067  0.62729101    -0.03750
C382        C  0.02892680  0.51601590  0.65673525    -0.08200
C383        C  0.50245219  0.53607300  0.34768230     0.05330
C384        C  0.47347208  0.51975078  0.34146098    -0.03220
Br385      Br  0.43565231  0.53910779  0.37313950    -0.02920
H386        H  0.44911694  0.47344560  0.64126901     0.09240
H387        H  0.05134073  0.52899018  0.66016545     0.07260
Br388      Br  0.06493842  0.46005025  0.59580139    -0.03350
C389        C  0.34740283  0.78729502  0.48394966    -0.09980
C390        C  0.35026806  0.73075620  0.50836580     0.06220
C391        C  0.38020114  0.68962924  0.50984369    -0.03750
C392        C  0.40605109  0.70458355  0.48672767    -0.08200
C393        C  0.40318050  0.76097664  0.46223532     0.05330
C394        C  0.37327834  0.80223612  0.46081065    -0.03220
Br395      Br  0.36544034  0.87660270  0.42597393    -0.02920
H396        H  0.32475571  0.81956758  0.48247536     0.09240
H397        H  0.42868844  0.67226120  0.48819675     0.07260
Br398      Br  0.38815747  0.61519953  0.54463976    -0.03350
C399        C  0.12730003  0.79981267  0.50306661    -0.09980
C400        C  0.15503514  0.75219673  0.49736724     0.06220
C401        C  0.15343287  0.69409688  0.48067261    -0.03750
C402        C  0.12477509  0.68475702  0.47027021    -0.08200
C403        C  0.09712245  0.73260795  0.47576979     0.05330
C404        C  0.09867461  0.79050572  0.49259857    -0.03220
Br405      Br  0.06214892  0.85682811  0.50366314    -0.02920
H406        H  0.12756766  0.84370254  0.51695579     0.09240
H407        H  0.12445488  0.64093941  0.45634169     0.07260
Br408      Br  0.18987917  0.62767613  0.46941125    -0.03350
C409        C  0.38739510  0.70775773  0.34861213    -0.09980
C410        C  0.40485116  0.75427677  0.66380211     0.06220
C411        C  0.39425349  0.79273594  0.63355270    -0.03750
C412        C  0.36660395  0.78310085  0.62141586    -0.08200
C413        C  0.34912265  0.73661665  0.63961580     0.05330
C414        C  0.35958128  0.69875787  0.33672828    -0.03220
Br415      Br  0.33590261  0.63711875  0.36376250    -0.02760
H416        H  0.39486640  0.68012483  0.37281691     0.09240
H417        H  0.35916632  0.81054915  0.59716249     0.07260
Br418      Br  0.41727039  0.85686439  0.60753500    -0.03350
C419        C  0.10795085  0.69662593  0.64653216    -0.09980
C420        C  0.10248353  0.72837752  0.67812443     0.06220
C421        C  0.12272994  0.77067065  0.35223453    -0.03750
C422        C  0.14777276  0.78200139  0.66079547    -0.08200
C423        C  0.15302498  0.75083376  0.62903083     0.05330
C424        C  0.13302231  0.70788394  0.62179710    -0.03220
Br425      Br  0.13746281  0.66676245  0.57786898    -0.02920
H426        H  0.09229855  0.66430086  0.64079975     0.09240
H427        H  0.16329482  0.81471634  0.33306354     0.07260
Br428      Br  0.11799855  0.81301173  0.39585866    -0.03350
C429        C  0.27870124  0.01012877  0.32520465    -0.09980
C430        C  0.25140585  0.03513838  0.34718239     0.06220
C431        C  0.22260462  0.01903695  0.67348341    -0.03750
C432        C  0.22174469  0.98006949  0.64520231    -0.08200
C433        C  0.24902032  0.95563975  0.62299728     0.05330
C434        C  0.27780723  0.97173864  0.63005483    -0.03220
Br435      Br  0.31686326  0.94623048  0.60136442    -0.02920
H436        H  0.30113346  0.02165326  0.32961792     0.09240
H437        H  0.19935158  0.96787561  0.64104131     0.07260
Br438      Br  0.18346708  0.04572767  0.36850682    -0.03350
C439        C  0.22192490  0.48071808  0.33578297    -0.09980
C440        C  0.24914076  0.46771510  0.35361971     0.06220
C441        C  0.27714301  0.48449510  0.66842124    -0.03750
C442        C  0.27753648  0.51248001  0.63321878    -0.08200
C443        C  0.25029945  0.52579736  0.61539641     0.05330
C444        C  0.22234153  0.50870609  0.63386873    -0.03220
Br445      Br  0.18426431  0.51827357  0.61200813    -0.02920
H446        H  0.20024294  0.46715054  0.34884210     0.09240
H447        H  0.29934507  0.52524347  0.62010648     0.07260
Br448      Br  0.31556174  0.47328713  0.35657259    -0.03350
O449        O  0.27686716  0.57444183  0.89622098    -0.81720
O450        O  0.27069954  0.87365934  0.91408943    -0.66410
O451        O  0.26506843  0.68963589  0.92491664    -1.13010
C452        C  0.18323134  0.76061383  0.84743661     1.05170
O453        O  0.21929428  0.90195795  0.92239585    -0.79610
O454        O  0.17741184  0.82067858  0.92001863    -0.67190
Ni455      Ni  0.30102181  0.62079746  0.91983247     1.34870
C456        C  0.17919565  0.76358849  0.93688089     0.83910
O457        O  0.29955856  0.76976812  0.95232176    -0.80150
O458        O  0.32601889  0.66491920  0.94470434    -0.90430
C459        C  0.24648375  0.90977251  0.92854699     0.83480
O460        O  0.31892715  0.65831155  0.87569652    -0.68630
O461        O  0.18792758  0.82045891  0.84935577    -0.87920
C462        C  0.32288025  0.71855781  0.86737648     0.84310
C463        C  0.32280575  0.72252580  0.95656950     1.05880
H464        H  0.25177177  0.78961555  0.86021262     0.37680
O465        O  0.24062670  0.78629316  0.88369803    -1.10580
O466        O  0.20197400  0.71587168  0.93209543    -0.67230
Ni467      Ni  0.23279312  0.69665269  0.89298173     1.26350
O468        O  0.30533111  0.76875223  0.88153273    -0.67460
O469        O  0.19958227  0.70862259  0.86221419    -0.79750
C470        C  0.25102615  0.56445054  0.91313447     0.83690
O471        O  0.22682934  0.60538439  0.90528887    -0.66930
Ni472      Ni  0.20557491  0.85869963  0.88510286     1.27450
Ni473      Ni  0.27001016  0.78007181  0.91823131     1.26060
H474        H  0.25569008  0.68275259  0.94904774     0.38240
O475        O  0.02038824  0.08316849  0.89901581    -0.81720
O476        O  0.01894465  0.38091167  0.91325302    -0.66410
O477        O  0.01121580  0.19869432  0.92745294    -1.13010
C478        C  0.43020451  0.26683956  0.84931478     1.05170
O479        O  0.46774114  0.41420576  0.91924008    -0.79610
O480        O  0.42441608  0.33565115  0.91767843    -0.67190
Ni481      Ni  0.04627550  0.12863991  0.92084848     1.34870
C482        C  0.42570607  0.28175411  0.93744604     0.83910
O483        O  0.04598811  0.27720985  0.95354062    -0.80150
O484        O  0.07226243  0.17235858  0.94438536    -0.90430
C485        C  0.99503085  0.41947207  0.92645113     0.83480
O486        O  0.06347048  0.16481833  0.87567305    -0.68630
O487        O  0.43689238  0.32606208  0.84782656    -0.87920
C488        C  0.06829322  0.22461515  0.86743490     0.84310
C489        C  0.06901674  0.22918345  0.95721452     1.05880
H490        H  0.49955982  0.29282925  0.86104613     0.37680
O491        O  0.48803667  0.29339017  0.88438496    -1.10580
O492        O  0.44877014  0.23378595  0.93591987    -0.67230
Ni493      Ni  0.47837025  0.20598921  0.89699087     1.26350
O494        O  0.05232496  0.27431595  0.88317541    -0.67460
O495        O  0.44470003  0.21711358  0.86741773    -0.79750
C496        C  0.49523525  0.07381078  0.91786250     0.83690
O497        O  0.47094445  0.11689962  0.91273203    -0.66930
Ni498      Ni  0.45418775  0.36801886  0.88274063     1.27450
Ni499      Ni  0.01694974  0.28810861  0.91921004     1.26060
H500        H  0.00247052  0.19253752  0.95191621     0.38240
O501        O  0.03294265  0.58470448  0.71668724    -0.81720
O502        O  0.02861129  0.88038618  0.72981896    -0.66410
O503        O  0.01229524  0.70183133  0.75440659    -1.13010
C504        C  0.43127383  0.76755574  0.01357200     1.05170
O505        O  0.47884992  0.91162114  0.74101835    -0.79610
O506        O  0.43488412  0.83215280  0.76090381    -0.67190
Ni507      Ni  0.04631742  0.62742340  0.75459330     1.34870
C508        C  0.43054576  0.77231138  0.76966018     0.83910
O509        O  0.05437655  0.77727881  0.77514696    -0.80150
O510        O  0.06331588  0.66587648  0.79083909    -0.90430
C511        C  0.00420174  0.92177855  0.72302400     0.83480
O512        O  0.07626670  0.66243578  0.72080801    -0.68630
O513        O  0.42861286  0.82547791  0.02497581    -0.87920
C514        C  0.07535635  0.71817597  0.03605065     0.84310
C515        C  0.06919232  0.72520232  0.79166255     1.05880
H516        H  0.49869013  0.80356167  0.02111088     0.37680
O517        O  0.48922986  0.79766799  0.71194525    -1.10580
O518        O  0.44781580  0.72152835  0.75586314    -0.67230
Ni519      Ni  0.48324594  0.70819739  0.71955628     1.26350
O520        O  0.05248450  0.76636384  0.70534491    -0.67460
O521        O  0.45391182  0.71915175  0.01855465    -0.79750
C522        C  0.50560915  0.57874466  0.70998940     0.83690
O523        O  0.48166194  0.61523798  0.72464106    -0.66930
Ni524      Ni  0.45394557  0.86800339  0.71694253     1.27450
Ni525      Ni  0.02150134  0.79007183  0.74382557     1.26060
H526        H  0.00082695  0.70050162  0.77778674     0.38240
O527        O  0.28112564  0.08951907  0.71410436    -0.81720
O528        O  0.27294905  0.38709868  0.72933298    -0.66410
O529        O  0.25974115  0.20635251  0.75213232    -1.13010
C530        C  0.17685667  0.26905681  0.01489681     1.05170
O531        O  0.22303684  0.41908579  0.74002395    -0.79610
O532        O  0.18284354  0.33138649  0.76354486    -0.67190
Ni533      Ni  0.29520408  0.13471414  0.75038122     1.34870
C534        C  0.17866009  0.27095112  0.77106053     0.83910
O535        O  0.30122028  0.28553039  0.77129970    -0.80150
O536        O  0.31338205  0.17476278  0.78513214    -0.90430
C537        C  0.24868875  0.42852349  0.72234342     0.83480
O538        O  0.32220820  0.17276431  0.71415022    -0.68630
O539        O  0.17281013  0.32513131  0.02858291    -0.87920
C540        C  0.31933075  0.22924222  0.02992125     0.84310
C541        C  0.31799694  0.23493549  0.78631980     1.05880
H542        H  0.24293025  0.31103061  0.02044496     0.37680
O543        O  0.23434333  0.30306792  0.71148223    -1.10580
O544        O  0.19511224  0.22221860  0.75477107    -0.67230
Ni545      Ni  0.23020432  0.21227090  0.71789845     1.26350
O546        O  0.29651702  0.27649261  0.70204809    -0.67460
O547        O  0.20075984  0.22288081  0.01734689    -0.79750
C548        C  0.25394293  0.08187398  0.70787116     0.83690
O549        O  0.22973187  0.11858525  0.72187823    -0.66930
Ni550      Ni  0.19825238  0.37068033  0.71845427     1.27450
Ni551      Ni  0.26720636  0.29619648  0.74216217     1.26060
H552        H  0.24881706  0.20309809  0.77572149     0.38240
C553        C  0.38383036  0.31280003  0.81583366    -0.09980
C554        C  0.40273669  0.25651693  0.83142980     0.06220
C555        C  0.39254086  0.19373937  0.83304374    -0.03750
C556        C  0.36449258  0.18919603  0.81959183    -0.08200
C557        C  0.34554856  0.24547203  0.80402758     0.05330
C558        C  0.35575926  0.30822804  0.80238412    -0.03220
Br559      Br  0.33338226  0.39112784  0.78239397    -0.02920
H560        H  0.39056808  0.36168005  0.81453903     0.09240
H561        H  0.35775128  0.14030934  0.82096851     0.07260
Br562      Br  0.41505032  0.11055470  0.85272304    -0.03350
C563        C  0.12088429  0.18361169  0.83503304    -0.09980
C564        C  0.09534859  0.23643639  0.84075645     0.06220
C565        C  0.09821159  0.30067449  0.82407939    -0.03750
C566        C  0.12595053  0.31065710  0.80303829    -0.08200
C567        C  0.15154571  0.25797992  0.79739442     0.05330
C568        C  0.14862102  0.19358575  0.81381099    -0.03220
Br569      Br  0.18187618  0.11723528  0.81006721    -0.02920
H570        H  0.11973494  0.13422175  0.84803551     0.09240
H571        H  0.12702729  0.36009984  0.79006514     0.07260
Br572      Br  0.06486766  0.37706139  0.82708011    -0.03350
C573        C  0.38371351  0.21733503  0.95474772    -0.09980
C574        C  0.39800480  0.27093575  0.96079916     0.06220
C575        C  0.38501615  0.31308072  0.98779457    -0.03750
C576        C  0.35865990  0.29909610  0.00954750    -0.08200
C577        C  0.34506289  0.24396377  0.00435598     0.05330
C578        C  0.35737403  0.20322295  0.97655240    -0.03220
Br579      Br  0.33845607  0.13008951  0.63330651    -0.02920
H580        H  0.39303829  0.18665492  0.93282518     0.09240
H581        H  0.34933764  0.32994153  0.03138750     0.07260
Br582      Br  0.40321133  0.38746504  0.99713826    -0.03350
C583        C  0.13269070  0.21075061  0.68336116    -0.09980
C584        C  0.15089600  0.25554182  0.99827691     0.06220
C585        C  0.14132614  0.29336178  0.96749282    -0.03750
C586        C  0.11335007  0.28637845  0.95550731    -0.08200
C587        C  0.09515102  0.24159184  0.97387774     0.05330
C588        C  0.10491879  0.20294589  0.67106595    -0.03220
Br589      Br  0.08071023  0.14084375  0.69701683    -0.02920
H590        H  0.13969247  0.18325240  0.70779544     0.09240
H591        H  0.10632379  0.31407180  0.93111974     0.07260
Br592      Br  0.16637577  0.35229310  0.94034102    -0.03350
C593        C  0.02618894  0.99976781  0.96239321    -0.09980
C594        C  0.49662242  0.03061463  0.95215740     0.06220
C595        C  0.46996179  0.02556021  0.97691208    -0.03750
C596        C  0.47344583  0.99293437  0.67745918    -0.08200
C597        C  0.00304141  0.96253361  0.68788318     0.05330
C598        C  0.02964586  0.96622957  0.99610441    -0.03220
Br599      Br  0.07176933  0.92826977  0.00518274    -0.02920
H600        H  0.04714446  0.00274587  0.94423800     0.09240
H601        H  0.45243786  0.99010617  0.69554493     0.07260
Br602      Br  0.42770489  0.05911589  0.96654783    -0.03350
C603        C  0.47158680  0.48532144  0.97842767    -0.09980
C604        C  0.99811307  0.46414975  0.95453854     0.06220
C605        C  0.02708688  0.48071818  0.96062611    -0.03750
C606        C  0.02892674  0.51601623  0.99006935    -0.08200
C607        C  0.50245274  0.53607343  0.68101524     0.05330
C608        C  0.47347272  0.51975031  0.67479424    -0.03220
Br609      Br  0.43565286  0.53910827  0.70647252    -0.02920
H610        H  0.44911646  0.47344810  0.97460311     0.09240
H611        H  0.05134084  0.52898950  0.99349967     0.07260
Br612      Br  0.06493921  0.46004203  0.92913822    -0.03350
C613        C  0.34740242  0.78729627  0.81728339    -0.09980
C614        C  0.35026717  0.73075608  0.84169863     0.06220
C615        C  0.38019993  0.68962732  0.84317560    -0.03750
C616        C  0.40605003  0.70458156  0.82005974    -0.08200
C617        C  0.40317993  0.76097623  0.79556837     0.05330
C618        C  0.37327804  0.80223724  0.79414449    -0.03220
Br619      Br  0.36544038  0.87660616  0.75930904    -0.02920
H620        H  0.32475557  0.81957019  0.81580975     0.09240
H621        H  0.42868711  0.67225792  0.82152820     0.07260
Br622      Br  0.38815568  0.61519507  0.87797031    -0.03350
C623        C  0.12729944  0.79981602  0.83640053    -0.09980
C624        C  0.15503469  0.75220050  0.83070118     0.06220
C625        C  0.15343277  0.69410100  0.81400608    -0.03750
C626        C  0.12477522  0.68476114  0.80360306    -0.08200
C627        C  0.09712242  0.73261167  0.80910254     0.05330
C628        C  0.09867421  0.79050902  0.82593191    -0.03220
Br629      Br  0.06214822  0.85683049  0.83699673    -0.02920
H630        H  0.12756683  0.84370554  0.85029011     0.09240
H631        H  0.12445532  0.64094376  0.78967419     0.07260
Br632      Br  0.18987932  0.62768078  0.80274486    -0.03350
C633        C  0.38739497  0.70775802  0.68194541    -0.09980
C634        C  0.40485114  0.75427876  0.99713417     0.06220
C635        C  0.39425661  0.79272939  0.96688106    -0.03750
C636        C  0.36660747  0.78309328  0.95474380    -0.08200
C637        C  0.34912343  0.73661724  0.97294720     0.05330
C638        C  0.35958112  0.69875819  0.67006164    -0.03220
Br639      Br  0.33590258  0.63711878  0.69709581    -0.02760
H640        H  0.39486636  0.68012503  0.70615013     0.09240
H641        H  0.35917199  0.81053497  0.93048791     0.07260
Br642      Br  0.41727707  0.85684780  0.94085952    -0.03350
C643        C  0.10794911  0.69663654  0.97986535    -0.09980
C644        C  0.10248090  0.72839081  0.01145680     0.06220
C645        C  0.12272921  0.77067542  0.68556595    -0.03750
C646        C  0.14777039  0.78201380  0.99412810    -0.08200
C647        C  0.15302377  0.75084276  0.96236441     0.05330
C648        C  0.13302137  0.70789213  0.95513096    -0.03220
Br649      Br  0.13746365  0.66676522  0.91120425    -0.02920
H650        H  0.09229720  0.66431032  0.97413329     0.09240
H651        H  0.16329472  0.81471910  0.66639516     0.07260
Br652      Br  0.11799856  0.81301466  0.72919056    -0.03350
C653        C  0.27870116  0.01012822  0.65853781    -0.09980
C654        C  0.25140572  0.03513790  0.68051544     0.06220
C655        C  0.22260319  0.01904921  0.00681318    -0.03750
C656        C  0.22174411  0.98008167  0.97853184    -0.08200
C657        C  0.24902100  0.95564268  0.95633113     0.05330
C658        C  0.27780840  0.97173262  0.96339344    -0.03220
Br659      Br  0.31686676  0.94621108  0.93470971    -0.02920
H660        H  0.30113338  0.02165222  0.66295140     0.09240
H661        H  0.19935042  0.96789540  0.97436714     0.07260
Br662      Br  0.18346700  0.04572682  0.70183968    -0.03350
C663        C  0.22192591  0.48071788  0.66911558    -0.09980
C664        C  0.24914194  0.46771442  0.68695205     0.06220
C665        C  0.27714086  0.48450250  0.00175751    -0.03750
C666        C  0.27753437  0.51248699  0.96655497    -0.08200
C667        C  0.25029769  0.52580096  0.94873197     0.05330
C668        C  0.22234013  0.50870687  0.96720375    -0.03220
Br669      Br  0.18426369  0.51826950  0.94534205    -0.02920
H670        H  0.20024394  0.46715074  0.68217489     0.09240
H671        H  0.29934264  0.52525279  0.95344315     0.07260
Br672      Br  0.31556290  0.47328660  0.68990453    -0.03350
O673        O  0.77686864  0.57443955  0.22955359    -0.81720
O674        O  0.77069855  0.87365725  0.24742276    -0.66410
O675        O  0.76506881  0.68963318  0.25824945    -1.13010
C676        C  0.68323086  0.76061193  0.18077033     1.05170
O677        O  0.71929320  0.90195249  0.25573139    -0.79610
O678        O  0.67741138  0.82067165  0.25335339    -0.67190
Ni679      Ni  0.80102247  0.62079534  0.25316607     1.34870
C680        C  0.67919606  0.76358060  0.27021482     0.83910
O681        O  0.79955864  0.76976692  0.28565474    -0.80150
O682        O  0.82601877  0.66491740  0.27803895    -0.90430
C683        C  0.74648272  0.90976907  0.26188112     0.83480
O684        O  0.81892841  0.65831000  0.20903067    -0.68630
O685        O  0.68792697  0.82045677  0.18269021    -0.87920
C686        C  0.82288034  0.71855681  0.20070993     0.84310
C687        C  0.82280559  0.72252451  0.28990359     1.05880
H688        H  0.75177097  0.78961467  0.19354613     0.37680
O689        O  0.74062621  0.78629073  0.21703164    -1.10580
O690        O  0.70197477  0.71586519  0.26542834    -0.67230
Ni691      Ni  0.73279356  0.69664959  0.22631426     1.26350
O692        O  0.80533050  0.76875100  0.21486564    -0.67460
O693        O  0.69958226  0.70862005  0.19554696    -0.79750
C694        C  0.75102751  0.56444744  0.24646645     0.83690
O695        O  0.72683065  0.60538046  0.23862021    -0.66930
Ni696      Ni  0.70557388  0.85869583  0.21843794     1.27450
Ni697      Ni  0.77000992  0.78006955  0.25156455     1.26060
H698        H  0.75569037  0.68274969  0.28238049     0.38240
O699        O  0.52038183  0.08317563  0.23235330    -0.81720
O700        O  0.51894426  0.38091702  0.24658406    -0.66410
O701        O  0.51121218  0.19870247  0.26078811    -1.13010
C702        C  0.93020468  0.26684614  0.18264504     1.05170
O703        O  0.96774089  0.41421474  0.25256833    -0.79610
O704        O  0.92441358  0.33566563  0.25100417    -0.67190
Ni705      Ni  0.54627080  0.12864529  0.25418452     1.34870
C706        C  0.92570177  0.28177158  0.27077397     0.83910
O707        O  0.54598615  0.27721598  0.28687444    -0.80150
O708        O  0.57225876  0.17236267  0.27772058    -0.90430
C709        C  0.49503044  0.41947893  0.25978097     0.83480
O710        O  0.56346717  0.16481985  0.20900835    -0.68630
O711        O  0.93689468  0.32606738  0.18115392    -0.87920
C712        C  0.56829105  0.22461587  0.20076955     0.84310
C713        C  0.56901407  0.22918787  0.29054919     1.05880
H714        H  0.99955982  0.29283024  0.19437874     0.37680
O715        O  0.98803587  0.29339543  0.21771713    -1.10580
O716        O  0.94876617  0.23380352  0.26925265    -0.67230
Ni717      Ni  0.97836697  0.20599767  0.23032557     1.26350
O718        O  0.55232364  0.27431776  0.21650968    -0.67460
O719        O  0.94469762  0.21712201  0.20075148    -0.79750
C720        C  0.99522884  0.07382148  0.25120094     0.83690
O721        O  0.97093865  0.11691113  0.24606946    -0.66930
Ni722      Ni  0.95418864  0.36802673  0.21606840     1.27450
Ni723      Ni  0.51694803  0.28811496  0.25254320     1.26060
H724        H  0.50246647  0.19254796  0.28525138     0.38240
O725        O  0.53294219  0.58471233  0.05001874    -0.81720
O726        O  0.52860733  0.88039594  0.06315462    -0.66410
O727        O  0.51229386  0.70183801  0.08773940    -1.13010
C728        C  0.93127481  0.76755084  0.34690669     1.05170
O729        O  0.97884548  0.91162876  0.07435230    -0.79610
O730        O  0.93488112  0.83215717  0.09423618    -0.67190
Ni731      Ni  0.54631652  0.62743123  0.08792507     1.34870
C732        C  0.93054381  0.77231508  0.10299244     0.83910
O733        O  0.55437400  0.77728686  0.10848142    -0.80150
O734        O  0.56331451  0.66588366  0.12417126    -0.90430
C735        C  0.50419756  0.92178716  0.05635879     0.83480
O736        O  0.57626482  0.66244649  0.05413969    -0.68630
O737        O  0.92861523  0.82547313  0.35831005    -0.87920
C738        C  0.57535921  0.71815894  0.36938597     0.84310
C739        C  0.56919047  0.72520952  0.12499578     1.05880
H740        H  0.99869258  0.80355081  0.35444393     0.37680
O741        O  0.98922783  0.79767547  0.04527873    -1.10580
O742        O  0.94781459  0.72153289  0.08919543    -0.67230
Ni743      Ni  0.98324498  0.70820396  0.05288882     1.26350
O744        O  0.55248257  0.76637598  0.03867911    -0.67460
O745        O  0.95391212  0.71914509  0.35188960    -0.79750
C746        C  0.00560877  0.57875126  0.04332137     0.83690
O747        O  0.98166152  0.61524426  0.05797305    -0.66930
Ni748      Ni  0.95394266  0.86800917  0.05027548     1.27450
Ni749      Ni  0.52149882  0.79007991  0.07715975     1.26060
H750        H  0.50082552  0.70050661  0.11111950     0.38240
O751        O  0.78112421  0.08952053  0.04744097    -0.81720
O752        O  0.77294828  0.38710054  0.06266682    -0.66410
O753        O  0.75973938  0.20635551  0.08546785    -1.13010
C754        C  0.67685703  0.26905281  0.34822910     1.05170
O755        O  0.72303610  0.41908786  0.07335972    -0.79610
O756        O  0.68284272  0.33138761  0.09688129    -0.67190
Ni757      Ni  0.79520178  0.13471620  0.08371848     1.34870
C758        C  0.67865872  0.27095230  0.10439599     0.83910
O759        O  0.80121950  0.28553269  0.10463370    -0.80150
O760        O  0.81337897  0.17476597  0.11846981    -0.90430
C761        C  0.74868775  0.42852598  0.05567857     0.83480
O762        O  0.82220697  0.17276486  0.04748841    -0.68630
O763        O  0.67281074  0.32512801  0.36191442    -0.87920
C764        C  0.81933052  0.22924618  0.36325080     0.84310
C765        C  0.81799521  0.23493837  0.11965533     1.05880
H766        H  0.74293067  0.31102792  0.35377746     0.37680
O767        O  0.73434198  0.30307068  0.04481744    -1.10580
O768        O  0.69511059  0.22222052  0.08810579    -0.67230
Ni769      Ni  0.73020299  0.21227385  0.05123352     1.26350
O770        O  0.79651594  0.27649190  0.03538262    -0.67460
O771        O  0.70075996  0.22287647  0.35068006    -0.79750
C772        C  0.75394166  0.08187667  0.04120639     0.83690
O773        O  0.72973050  0.11858829  0.05521299    -0.66930
Ni774      Ni  0.69825107  0.37068266  0.05179058     1.27450
Ni775      Ni  0.76720533  0.29619879  0.07549676     1.26060
H776        H  0.74881489  0.20310259  0.10905689     0.38240
C777        C  0.88382801  0.31280654  0.14916814    -0.09980
C778        C  0.90273687  0.25652296  0.16476034     0.06220
C779        C  0.89254323  0.19374348  0.16637176    -0.03750
C780        C  0.86449424  0.18919889  0.15292183    -0.08200
C781        C  0.84554751  0.24547544  0.13736175     0.05330
C782        C  0.85575628  0.30823329  0.13572036    -0.03220
Br783      Br  0.83337535  0.39113438  0.11573625    -0.02920
H784        H  0.89056403  0.36168788  0.14787576     0.09240
H785        H  0.85775472  0.14031078  0.15429635     0.07260
Br786      Br  0.91505744  0.11055746  0.18604377    -0.03350
C787        C  0.62088216  0.18361134  0.16836724    -0.09980
C788        C  0.59534649  0.23643603  0.17409075     0.06220
C789        C  0.59820964  0.30067424  0.15741372    -0.03750
C790        C  0.62594876  0.31065722  0.13637312    -0.08200
C791        C  0.65154401  0.25798032  0.13072937     0.05330
C792        C  0.64861906  0.19358576  0.14714539    -0.03220
Br793      Br  0.68187413  0.11723528  0.14340108    -0.02920
H794        H  0.61973264  0.13422132  0.18136952     0.09240
H795        H  0.62702562  0.36010011  0.12340020     0.07260
Br796      Br  0.56486564  0.37706117  0.16041374    -0.03350
C797        C  0.88370100  0.21737047  0.28806388    -0.09980
C798        C  0.89799843  0.27095660  0.29412387     0.06220
C799        C  0.88501676  0.31308520  0.32112841    -0.03750
C800        C  0.85866240  0.29909531  0.34288312    -0.08200
C801        C  0.84506106  0.24397290  0.33768486     0.05330
C802        C  0.85736446  0.20325050  0.30987162    -0.03220
Br803      Br  0.83846596  0.13006219  0.96665567    -0.02920
H804        H  0.89302097  0.18670279  0.26613504     0.09240
H805        H  0.84934519  0.32992800  0.36472958     0.07260
Br806      Br  0.90321895  0.38745333  0.33048128    -0.03350
C807        C  0.63268654  0.21076269  0.01669964    -0.09980
C808        C  0.65089631  0.25553822  0.33160879     0.06220
C809        C  0.64132310  0.29336716  0.30082846    -0.03750
C810        C  0.61334593  0.28638681  0.28884452    -0.08200
C811        C  0.59514897  0.24159391  0.30721248     0.05330
C812        C  0.60491554  0.20295655  0.00440293    -0.03220
Br813      Br  0.58070291  0.14086524  0.03035706    -0.02920
H814        H  0.63968549  0.18327166  0.04113679     0.09240
H815        H  0.60631737  0.31408701  0.26445954     0.07260
Br816      Br  0.66636996  0.35230620  0.27367889    -0.03350
C817        C  0.52618174  0.99972649  0.29571386    -0.09980
C818        C  0.99661633  0.03062523  0.28549605     0.06220
C819        C  0.96996142  0.02561579  0.31026700    -0.03750
C820        C  0.97344179  0.99290085  0.01077940    -0.08200
C821        C  0.50303807  0.96253836  0.02121678     0.05330
C822        C  0.52964401  0.96617888  0.32942194    -0.03220
Br823      Br  0.57176568  0.92813529  0.33846942    -0.02920
H824        H  0.54713287  0.00266697  0.27754554     0.09240
H825        H  0.95243066  0.99004653  0.02885579     0.07260
Br826      Br  0.92770300  0.05925000  0.29993350    -0.03350
C827        C  0.97158636  0.48532154  0.31175991    -0.09980
C828        C  0.49811238  0.46415404  0.28786959     0.06220
C829        C  0.52708609  0.48072241  0.29395743    -0.03750
C830        C  0.52892622  0.51601611  0.32340217    -0.08200
C831        C  0.00245237  0.53607764  0.01434824     0.05330
C832        C  0.97347220  0.51975525  0.00812720    -0.03220
Br833      Br  0.93565157  0.53911911  0.03980372    -0.02920
H834        H  0.94911612  0.47344813  0.30793502     0.09240
H835        H  0.55134021  0.52898976  0.32683265     0.07260
Br836      Br  0.56493772  0.46005267  0.26246771    -0.03350
C837        C  0.84740062  0.78729371  0.15061488    -0.09980
C838        C  0.85026674  0.73075610  0.17503175     0.06220
C839        C  0.88020021  0.68963086  0.17650980    -0.03750
C840        C  0.90604980  0.70458600  0.15339342    -0.08200
C841        C  0.90317836  0.76097825  0.12890056     0.05330
C842        C  0.87327573  0.80223558  0.12747549    -0.03220
Br843      Br  0.86543662  0.87660015  0.09263781    -0.02920
H844        H  0.82475314  0.81956478  0.14914040     0.09240
H845        H  0.92868752  0.67226527  0.15486274     0.07260
Br846      Br  0.88815747  0.61520285  0.21130665    -0.03350
C847        C  0.62729925  0.79981806  0.16973401    -0.09980
C848        C  0.65503382  0.75220028  0.16403511     0.06220
C849        C  0.65343083  0.69410136  0.14734013    -0.03750
C850        C  0.62477300  0.68476448  0.13693665    -0.08200
C851        C  0.59712091  0.73261731  0.14243562     0.05330
C852        C  0.59867371  0.79051395  0.15926502    -0.03220
Br853      Br  0.56214876  0.85683829  0.17032946    -0.02920
H854        H  0.62756738  0.84370729  0.18362349     0.09240
H855        H  0.62445235  0.64094730  0.12300797     0.07260
Br856      Br  0.68987622  0.62767761  0.13607988    -0.03350
C857        C  0.88739258  0.70776712  0.01528051    -0.09980
C858        C  0.90485138  0.75427638  0.33046883     0.06220
C859        C  0.89425377  0.79273542  0.30021934    -0.03750
C860        C  0.86660426  0.78310028  0.28808240    -0.08200
C861        C  0.84912291  0.73661613  0.30628233     0.05330
C862        C  0.85957903  0.69876659  0.00339637    -0.03220
Br863      Br  0.83589717  0.63713690  0.03043399    -0.02760
H864        H  0.89486197  0.68014031  0.03948761     0.09240
H865        H  0.85916667  0.81054855  0.26382901     0.07260
Br866      Br  0.91727076  0.85686372  0.27420162    -0.03350
C867        C  0.60795176  0.69662145  0.31320039    -0.09980
C868        C  0.60248453  0.72837210  0.34479293     0.06220
C869        C  0.62272626  0.77068936  0.01889814    -0.03750
C870        C  0.64777315  0.78199791  0.32746389    -0.08200
C871        C  0.65302512  0.75083164  0.29569887     0.05330
C872        C  0.63302275  0.70788121  0.28846507    -0.03220
Br873      Br  0.63746286  0.66676170  0.24453640    -0.02920
H874        H  0.59229956  0.66429630  0.30746783     0.09240
H875        H  0.66329238  0.81473132  0.99972783     0.07260
Br876      Br  0.61799643  0.81302495  0.06252371    -0.03350
C877        C  0.77870143  0.01012222  0.99187680    -0.09980
C878        C  0.75140476  0.03514095  0.01385014     0.06220
C879        C  0.72260471  0.01903719  0.34015067    -0.03750
C880        C  0.72174471  0.98006931  0.31186982    -0.08200
C881        C  0.74902028  0.95563938  0.28966476     0.05330
C882        C  0.77780722  0.97173861  0.29672196    -0.03220
Br883      Br  0.81686316  0.94623008  0.26803145    -0.02920
H884        H  0.80113412  0.02163865  0.99629419     0.09240
H885        H  0.69935157  0.96787534  0.30770901     0.07260
Br886      Br  0.68346312  0.04575273  0.03516238    -0.03350
C887        C  0.72192455  0.48071873  0.00245065    -0.09980
C888        C  0.74914026  0.46771837  0.02028765     0.06220
C889        C  0.77714190  0.48449594  0.33508910    -0.03750
C890        C  0.77753554  0.51248086  0.29988662    -0.08200
C891        C  0.75029866  0.52579776  0.28206397     0.05330
C892        C  0.72234073  0.50870607  0.30053606    -0.03220
Br893      Br  0.68426384  0.51827238  0.27867497    -0.02920
H894        H  0.70024296  0.46714892  0.01550949     0.09240
H895        H  0.79934413  0.52524452  0.28677448     0.07260
Br896      Br  0.81555985  0.47329963  0.02324222    -0.03350
O897        O  0.77686925  0.57443996  0.56288623    -0.81720
O898        O  0.77069882  0.87365746  0.58075549    -0.66410
O899        O  0.76506906  0.68963343  0.59158242    -1.13010
C900        C  0.68323190  0.76061009  0.51410241     1.05170
O901        O  0.71929347  0.90195363  0.58906304    -0.79610
O902        O  0.67741187  0.82067234  0.58668539    -0.67190
Ni903      Ni  0.80102279  0.62079572  0.58649912     1.34870
C904        C  0.67919624  0.76358144  0.60354690     0.83910
O905        O  0.79955851  0.76976734  0.61898799    -0.80150
O906        O  0.82601877  0.66491781  0.61137235    -0.90430
C907        C  0.74648291  0.90976965  0.59521342     0.83480
O908        O  0.81892901  0.65831045  0.54236390    -0.68630
O909        O  0.68792752  0.82045536  0.51602229    -0.87920
C910        C  0.82288117  0.71855716  0.53404340     0.84310
C911        C  0.82280543  0.72252493  0.62323701     1.05880
H912        H  0.75177177  0.78961422  0.52687872     0.37680
O913        O  0.74062679  0.78629059  0.55036412    -1.10580
O914        O  0.70197479  0.71586551  0.59876058    -0.67230
Ni915      Ni  0.73279417  0.69664938  0.55964694     1.26350
O916        O  0.80533115  0.76875132  0.54819893    -0.67460
O917        O  0.69958345  0.70861880  0.52887921    -0.79750
C918        C  0.75102818  0.56444736  0.57979903     0.83690
O919        O  0.72683128  0.60538034  0.57195300    -0.66930
Ni920      Ni  0.70557440  0.85869569  0.55176976     1.27450
Ni921      Ni  0.77001016  0.78006981  0.58489741     1.26060
H922        H  0.75569046  0.68274999  0.61571340     0.38240
O923        O  0.52038385  0.08317223  0.56568494    -0.81720
O924        O  0.51894510  0.38091383  0.57991809    -0.66410
O925        O  0.51121361  0.19869855  0.59412053    -1.13010
C926        C  0.93020558  0.26684377  0.51597821     1.05170
O927        O  0.96774167  0.41421055  0.58590300    -0.79610
O928        O  0.92441489  0.33566024  0.58433897    -0.67190
Ni929      Ni  0.54627240  0.12864186  0.58751677     1.34870
C930        C  0.92570354  0.28176532  0.60410812     0.83910
O931        O  0.54598722  0.27721200  0.62020754    -0.80150
O932        O  0.57226015  0.17235918  0.61105321    -0.90430
C933        C  0.49503124  0.41947543  0.59311523     0.83480
O934        O  0.56346853  0.16481746  0.54234091    -0.68630
O935        O  0.93689503  0.32606529  0.51448819    -0.87920
C936        C  0.56829223  0.22461362  0.53410236     0.84310
C937        C  0.56901531  0.22918425  0.62388199     1.05880
H938        H  0.99956062  0.29282866  0.52771195     0.37680
O939        O  0.98803682  0.29339259  0.55105043    -1.10580
O940        O  0.94876784  0.23379725  0.60258549    -0.67230
Ni941      Ni  0.97836843  0.20599400  0.56365791     1.26350
O942        O  0.55232469  0.27431532  0.54984262    -0.67460
O943        O  0.94469893  0.21711898  0.53408388    -0.79750
C944        C  0.99523089  0.07381707  0.58453215     0.83690
O945        O  0.97094059  0.11690663  0.57940087    -0.66930
Ni946      Ni  0.95418921  0.36802335  0.54940292     1.27450
Ni947      Ni  0.51694911  0.28811144  0.58587637     1.26060
H948        H  0.50246793  0.19254336  0.61858375     0.38240
O949        O  0.53294227  0.58470185  0.38335503    -0.81720
O950        O  0.52861272  0.88038246  0.39648519    -0.66410
O951        O  0.51229522  0.70182915  0.42107385    -1.13010
C952        C  0.93127442  0.76755173  0.68024000     1.05170
O953        O  0.97885133  0.91161870  0.40768499    -0.79610
O954        O  0.93488460  0.83215256  0.42757018    -0.67190
Ni955      Ni  0.54631695  0.62742038  0.42126128     1.34870
C956        C  0.93054614  0.77231131  0.43632690     0.83910
O957        O  0.55437704  0.77727533  0.44181388    -0.80150
O958        O  0.56331517  0.66587340  0.45750726    -0.90430
C959        C  0.50420330  0.92177545  0.38969055     0.83480
O960        O  0.57626703  0.66243141  0.38747651    -0.68630
O961        O  0.92861442  0.82547377  0.69164374    -0.87920
C962        C  0.57535859  0.71816359  0.70271798     0.84310
C963        C  0.56919223  0.72519889  0.45833006     1.05880
H964        H  0.99869182  0.80355367  0.68777723     0.37680
O965        O  0.98923048  0.79766585  0.37861195    -1.10580
O966        O  0.94781596  0.72152788  0.42253008    -0.67230
Ni967      Ni  0.98324602  0.70819573  0.38622335     1.26350
O968        O  0.55248504  0.76635883  0.37201198    -0.67460
O969        O  0.95391204  0.71914655  0.68522255    -0.79750
C970        C  0.00560871  0.57874308  0.37665690     0.83690
O971        O  0.98166158  0.61523662  0.39130855    -0.66930
Ni972      Ni  0.95394660  0.86800215  0.38360897     1.27450
Ni973      Ni  0.52150198  0.79006886  0.41049235     1.26060
H974        H  0.50082680  0.70050031  0.44445395     0.38240
O975        O  0.78112584  0.08952041  0.38077065    -0.81720
O976        O  0.77294789  0.38709967  0.39600066    -0.66410
O977        O  0.75974113  0.20635273  0.41879933    -1.13010
C978        C  0.67685790  0.26905331  0.68156119     1.05170
O979        O  0.72303563  0.41908610  0.40669168    -0.79610
O980        O  0.68284278  0.33138516  0.43021287    -0.67190
Ni981      Ni  0.79520451  0.13471536  0.41704731     1.34870
C982        C  0.67865958  0.27094952  0.43772841     0.83910
O983        O  0.80122012  0.28553152  0.43796626    -0.80150
O984        O  0.81338273  0.17476393  0.45179801    -0.90430
C985        C  0.74868751  0.42852411  0.38901110     0.83480
O986        O  0.82220789  0.17276691  0.38081592    -0.68630
O987        O  0.67281173  0.32512868  0.69524634    -0.87920
C988        C  0.81933146  0.22924302  0.69658481     0.84310
C989        C  0.81799732  0.23493680  0.45298578     1.05880
H990        H  0.74293188  0.31102723  0.68710983     0.37680
O991        O  0.73434238  0.30306819  0.37814994    -1.10580
O992        O  0.69511203  0.22221731  0.42143895    -0.67230
Ni993      Ni  0.73020388  0.21227086  0.38456594     1.26350
O994        O  0.79651593  0.27649489  0.36871483    -0.67460
O995        O  0.70076077  0.22287686  0.68401221    -0.79750
C996        C  0.75394310  0.08187454  0.37453799     0.83690
O997        O  0.72973201  0.11858505  0.38854552    -0.66930
Ni998      Ni  0.69825126  0.37067997  0.38512228     1.27450
Ni999      Ni  0.76720574  0.29619716  0.40882944     1.26060
H1000       H  0.74881735  0.20309760  0.44238863     0.38240
C1001       C  0.88382916  0.31280492  0.48250092    -0.09980
C1002       C  0.90273803  0.25652101  0.49809289     0.06220
C1003       C  0.89254475  0.19374137  0.49970326    -0.03750
C1004       C  0.86449609  0.18919692  0.48625260    -0.08200
C1005       C  0.84554933  0.24547377  0.47069275     0.05330
C1006       C  0.85575774  0.30823176  0.46905235    -0.03220
Br1007     Br  0.83337679  0.39113288  0.44906835    -0.02920
H1008       H  0.89056493  0.36168639  0.48120924     0.09240
H1009       H  0.85775682  0.14030867  0.48762644     0.07260
Br1010     Br  0.91505900  0.11055498  0.51937481    -0.03350
C1011       C  0.62088357  0.18360933  0.50170075    -0.09980
C1012       C  0.59534767  0.23643379  0.50742368     0.06220
C1013       C  0.59821052  0.30067162  0.49074609    -0.03750
C1014       C  0.62594956  0.31065446  0.46970529    -0.08200
C1015       C  0.65154503  0.25797775  0.46406203     0.05330
C1016       C  0.64862041  0.19358360  0.48047879    -0.03220
Br1017     Br  0.68187584  0.11723364  0.47673537    -0.02920
H1018       H  0.61973427  0.13421962  0.51470355     0.09240
H1019       H  0.62702617  0.36009706  0.45673187     0.07260
Br1020     Br  0.56486620  0.37705798  0.49374558    -0.03350
C1021       C  0.88370506  0.21735918  0.62140124    -0.09980
C1022       C  0.89800082  0.27094928  0.62745892     0.06220
C1023       C  0.88501748  0.31308182  0.65446125    -0.03750
C1024       C  0.85866280  0.29909296  0.67621568    -0.08200
C1025       C  0.84506256  0.24396804  0.67101915     0.05330
C1026       C  0.85736785  0.20324108  0.64320831    -0.03220
Br1027     Br  0.83845186  0.13010070  0.29996872    -0.02920
H1028       H  0.89302623  0.18668838  0.59947398     0.09240
H1029       H  0.84934438  0.32992877  0.69806057     0.07260
Br1030     Br  0.90321784  0.38745417  0.66381173    -0.03350
C1031       C  0.63268931  0.21075170  0.35002875    -0.09980
C1032       C  0.65089711  0.25553829  0.66494119     0.06220
C1033       C  0.64132351  0.29336695  0.63416096    -0.03750
C1034       C  0.61334655  0.28638505  0.62217707    -0.08200
C1035       C  0.59515019  0.24159098  0.64054502     0.05330
C1036       C  0.60491717  0.20294855  0.33773347    -0.03220
Br1037     Br  0.58070786  0.14084777  0.36368434    -0.02920
H1038       H  0.63969078  0.18325324  0.37446308     0.09240
H1039       H  0.60631768  0.31408506  0.59779217     0.07260
Br1040     Br  0.66636955  0.35230765  0.60701144    -0.03350
C1041       C  0.52618384  0.99973701  0.62905025    -0.09980
C1042       C  0.99661822  0.03062100  0.61882727     0.06220
C1043       C  0.96996161  0.02559846  0.64359344    -0.03750
C1044       C  0.97344727  0.99294823  0.34413147    -0.08200
C1045       C  0.50304272  0.96253264  0.35455038     0.05330
C1046       C  0.52964461  0.96619225  0.66275925    -0.03220
Br1047     Br  0.57176681  0.92817233  0.67181541    -0.02920
H1048       H  0.54713622  0.00268791  0.61088561     0.09240
H1049       H  0.95244050  0.99012987  0.36222075     0.07260
Br1050     Br  0.92770366  0.05920967  0.63325083    -0.03350
C1051       C  0.97158714  0.48531949  0.64509370    -0.09980
C1052       C  0.49811317  0.46415144  0.62120349     0.06220
C1053       C  0.52708679  0.48072072  0.62729098    -0.03750
C1054       C  0.52892681  0.51601587  0.65673525    -0.08200
C1055       C  0.00245218  0.53607305  0.34768230     0.05330
C1056       C  0.97347208  0.51975079  0.34146099    -0.03220
Br1057     Br  0.93565231  0.53910782  0.37313952    -0.02920
H1058       H  0.94911695  0.47344547  0.64126910     0.09240
H1059       H  0.55134073  0.52899011  0.66016547     0.07260
Br1060     Br  0.56493842  0.46005035  0.59580135    -0.03350
C1061       C  0.84740282  0.78729506  0.48394966    -0.09980
C1062       C  0.85026805  0.73075624  0.50836580     0.06220
C1063       C  0.88020113  0.68962928  0.50984369    -0.03750
C1064       C  0.90605108  0.70458360  0.48672767    -0.08200
C1065       C  0.90318048  0.76097668  0.46223531     0.05330
C1066       C  0.87327833  0.80223616  0.46081065    -0.03220
Br1067     Br  0.86544031  0.87660274  0.42597393    -0.02920
H1068       H  0.82475569  0.81956761  0.48247537     0.09240
H1069       H  0.92868843  0.67226125  0.48819674     0.07260
Br1070     Br  0.88815747  0.61519958  0.54463976    -0.03350
C1071       C  0.62730001  0.79981259  0.50306664    -0.09980
C1072       C  0.65503513  0.75219667  0.49736726     0.06220
C1073       C  0.65343287  0.69409683  0.48067263    -0.03750
C1074       C  0.62477510  0.68475695  0.47027023    -0.08200
C1075       C  0.59712246  0.73260786  0.47576981     0.05330
C1076       C  0.59867461  0.79050562  0.49259860    -0.03220
Br1077     Br  0.56214891  0.85682799  0.50366317    -0.02920
H1078       H  0.62756764  0.84370245  0.51695583     0.09240
H1079       H  0.62445490  0.64093934  0.45634169     0.07260
Br1080     Br  0.68987918  0.62767611  0.46941124    -0.03350
C1081       C  0.88739510  0.70775777  0.34861212    -0.09980
C1082       C  0.90485114  0.75427686  0.66380210     0.06220
C1083       C  0.89425346  0.79273602  0.63355270    -0.03750
C1084       C  0.86660394  0.78310090  0.62141585    -0.08200
C1085       C  0.84912265  0.73661668  0.63961580     0.05330
C1086       C  0.85958128  0.69875790  0.33672827    -0.03220
Br1087     Br  0.83590262  0.63711875  0.36376250    -0.02760
H1088       H  0.89486641  0.68012488  0.37281690     0.09240
H1089       H  0.85916630  0.81054919  0.59716248     0.07260
Br1090     Br  0.91727035  0.85686450  0.60753500    -0.03350
C1091       C  0.60795091  0.69662567  0.64653222    -0.09980
C1092       C  0.60248359  0.72837722  0.67812449     0.06220
C1093       C  0.62272997  0.77067049  0.35223456    -0.03750
C1094       C  0.64777280  0.78200116  0.66079553    -0.08200
C1095       C  0.65302501  0.75083359  0.62903088     0.05330
C1096       C  0.63302234  0.70788375  0.62179714    -0.03220
Br1097     Br  0.63746283  0.66676235  0.57786900    -0.02920
H1098       H  0.59229861  0.66430061  0.64079980     0.09240
H1099       H  0.66329484  0.81471622  0.33306357     0.07260
Br1100     Br  0.61799856  0.81301162  0.39585869    -0.03350
C1101       C  0.77870123  0.01012873  0.32520468    -0.09980
C1102       C  0.75140583  0.03513835  0.34718242     0.06220
C1103       C  0.72260459  0.01903694  0.67348344    -0.03750
C1104       C  0.72174466  0.98006948  0.64520234    -0.08200
C1105       C  0.74902029  0.95563973  0.62299732     0.05330
C1106       C  0.77780721  0.97173860  0.63005488    -0.03220
Br1107     Br  0.81686324  0.94623045  0.60136448    -0.02920
H1108       H  0.80113345  0.02165320  0.32961795     0.09240
H1109       H  0.69935155  0.96787562  0.64104133     0.07260
Br1110     Br  0.68346706  0.04572766  0.36850682    -0.03350
C1111       C  0.72192491  0.48071802  0.33578297    -0.09980
C1112       C  0.74914077  0.46771506  0.35361971     0.06220
C1113       C  0.77714302  0.48449510  0.66842125    -0.03750
C1114       C  0.77753650  0.51248001  0.63321879    -0.08200
C1115       C  0.75029947  0.52579734  0.61539640     0.05330
C1116       C  0.72234155  0.50870604  0.63386872    -0.03220
Br1117     Br  0.68426434  0.51827347  0.61200811    -0.02920
H1118       H  0.70024295  0.46715047  0.34884209     0.09240
H1119       H  0.79934508  0.52524350  0.62010650     0.07260
Br1120     Br  0.81556174  0.47328715  0.35657263    -0.03350
O1121       O  0.77686719  0.57444180  0.89622098    -0.81720
O1122       O  0.77069952  0.87365932  0.91408945    -0.66410
O1123       O  0.76506844  0.68963586  0.92491665    -1.13010
C1124       C  0.68323134  0.76061377  0.84743664     1.05170
O1125       O  0.71929426  0.90195791  0.92239589    -0.79610
O1126       O  0.67741184  0.82067850  0.92001867    -0.67190
Ni1127     Ni  0.80102182  0.62079745  0.91983248     1.34870
C1128       C  0.67919566  0.76358839  0.93688092     0.83910
O1129       O  0.79955856  0.76976811  0.95232177    -0.80150
O1130       O  0.82601890  0.66491921  0.94470434    -0.90430
C1131       C  0.74648373  0.90977248  0.92854702     0.83480
O1132       O  0.81892715  0.65831155  0.87569652    -0.68630
O1133       O  0.68792755  0.82045885  0.84935582    -0.87920
C1134       C  0.82288025  0.71855782  0.86737648     0.84310
C1135       C  0.82280575  0.72252581  0.95656951     1.05880
H1136       H  0.75177175  0.78961554  0.86021264     0.37680
O1137       O  0.74062669  0.78629314  0.88369804    -1.10580
O1138       O  0.70197401  0.71587160  0.93209544    -0.67230
Ni1139     Ni  0.73279313  0.69665265  0.89298174     1.26350
O1140       O  0.80533110  0.76875223  0.88153275    -0.67460
O1141       O  0.69958228  0.70862253  0.86221420    -0.79750
C1142       C  0.75102617  0.56445050  0.91313447     0.83690
O1143       O  0.72682936  0.60538434  0.90528887    -0.66930
Ni1144     Ni  0.70557489  0.85869958  0.88510289     1.27450
Ni1145     Ni  0.77001015  0.78007179  0.91823133     1.26060
H1146       H  0.75569009  0.68275255  0.94904775     0.38240
O1147       O  0.52038817  0.08316863  0.89901589    -0.81720
O1148       O  0.51894465  0.38091180  0.91325296    -0.66410
O1149       O  0.51121576  0.19869448  0.92745297    -1.13010
C1150       C  0.93020449  0.26683945  0.84931483     1.05170
O1151       O  0.96774115  0.41420560  0.91924016    -0.79610
O1152       O  0.92441611  0.33565091  0.91767855    -0.67190
Ni1153     Ni  0.54627545  0.12864004  0.92084852     1.34870
C1154       C  0.92570612  0.28175383  0.93744612     0.83910
O1155       O  0.54598808  0.27721002  0.95354062    -0.80150
O1156       O  0.57226239  0.17235872  0.94438538    -0.90430
C1157       C  0.49503084  0.41947221  0.92645107     0.83480
O1158       O  0.56347044  0.16481840  0.87567308    -0.68630
O1159       O  0.93689233  0.32606198  0.84782665    -0.87920
C1160       C  0.56829319  0.22461520  0.86743492     0.84310
C1161       C  0.56901671  0.22918361  0.95721453     1.05880
H1162       H  0.99955982  0.29282920  0.86104615     0.37680
O1163       O  0.98803668  0.29339006  0.88438498    -1.10580
O1164       O  0.94877019  0.23378566  0.93591988    -0.67230
Ni1165     Ni  0.97837028  0.20598905  0.89699084     1.26350
O1166       O  0.55232494  0.27431602  0.88317541    -0.67460
O1167       O  0.94470005  0.21711344  0.86741773    -0.79750
C1168       C  0.99523533  0.07381059  0.91786241     0.83690
O1169       O  0.97094452  0.11689942  0.91273196    -0.66930
Ni1170     Ni  0.95418773  0.36801872  0.88274072     1.27450
Ni1171     Ni  0.51694972  0.28810875  0.91921003     1.26060
H1172       H  0.50247047  0.19253773  0.95191624     0.38240
O1173       O  0.53294266  0.58470430  0.71668728    -0.81720
O1174       O  0.52861136  0.88038596  0.72981893    -0.66410
O1175       O  0.51229526  0.70183117  0.75440661    -1.13010
C1176       C  0.93127381  0.76755582  0.01357198     1.05170
O1177       O  0.97884984  0.91162133  0.74101836    -0.79610
O1178       O  0.93488408  0.83215290  0.76090381    -0.67190
Ni1179     Ni  0.54631743  0.62742321  0.75459335     1.34870
C1180       C  0.93054573  0.77231146  0.76966017     0.83910
O1181       O  0.55437659  0.77727862  0.77514696    -0.80150
O1182       O  0.56331588  0.66587631  0.79083915    -0.90430
C1183       C  0.50420182  0.92177836  0.72302399     0.83480
O1184       O  0.57626673  0.66243554  0.72080808    -0.68630
O1185       O  0.92861283  0.82547799  0.02497581    -0.87920
C1186       C  0.57535639  0.71817577  0.03605069     0.84310
C1187       C  0.56919233  0.72520213  0.79166258     1.05880
H1188       H  0.99869010  0.80356182  0.02111088     0.37680
O1189       O  0.98922982  0.79766816  0.71194525    -1.10580
O1190       O  0.94781578  0.72152846  0.75586312    -0.67230
Ni1191     Ni  0.98324592  0.70819755  0.71955626     1.26350
O1192       O  0.55248454  0.76636357  0.70534492    -0.67460
O1193       O  0.95391181  0.71915185  0.01855463    -0.79750
C1194       C  0.00560915  0.57874481  0.70998937     0.83690
O1195       O  0.98166194  0.61523812  0.72464102    -0.66930
Ni1196     Ni  0.95394551  0.86800353  0.71694254     1.27450
Ni1197     Ni  0.52150139  0.79007164  0.74382557     1.26060
H1198       H  0.50082697  0.70050150  0.77778677     0.38240
O1199       O  0.78112561  0.08951900  0.71410444    -0.81720
O1200       O  0.77294906  0.38709861  0.72933296    -0.66410
O1201       O  0.75974111  0.20635249  0.75213236    -1.13010
C1202       C  0.67685667  0.26905681  0.01489681     1.05170
O1203       O  0.72303686  0.41908575  0.74002395    -0.79610
O1204       O  0.68284352  0.33138650  0.76354486    -0.67190
Ni1205     Ni  0.79520403  0.13471408  0.75038131     1.34870
C1206       C  0.67866007  0.27095113  0.77106053     0.83910
O1207       O  0.80122027  0.28553033  0.77129972    -0.80150
O1208       O  0.81338198  0.17476274  0.78513224    -0.90430
C1209       C  0.74868877  0.42852344  0.72234341     0.83480
O1210       O  0.82220818  0.17276418  0.71415034    -0.68630
O1211       O  0.67281013  0.32513131  0.02858291    -0.87920
C1212       C  0.81933075  0.22924209  0.02992131     0.84310
C1213       C  0.81799690  0.23493544  0.78631986     1.05880
H1214       H  0.74293026  0.31103056  0.02044497     0.37680
O1215       O  0.73434333  0.30306787  0.71148224    -1.10580
O1216       O  0.69511221  0.22221860  0.75477108    -0.67230
Ni1217     Ni  0.73020430  0.21227087  0.71789847     1.26350
O1218       O  0.79651703  0.27649246  0.70204811    -0.67460
O1219       O  0.70075983  0.22288079  0.01734690    -0.79750
C1220       C  0.75394290  0.08187393  0.70787121     0.83690
O1221       O  0.72973183  0.11858523  0.72187827    -0.66930
Ni1222     Ni  0.69825239  0.37068031  0.71845427     1.27450
Ni1223     Ni  0.76720635  0.29619643  0.74216218     1.26060
H1224       H  0.74881701  0.20309812  0.77572152     0.38240
C1225       C  0.88383035  0.31279993  0.81583370    -0.09980
C1226       C  0.90273666  0.25651683  0.83142987     0.06220
C1227       C  0.89254079  0.19373929  0.83304385    -0.03750
C1228       C  0.86449252  0.18919598  0.81959194    -0.08200
C1229       C  0.84554852  0.24547196  0.80402765     0.05330
C1230       C  0.85575925  0.30822796  0.80238415    -0.03220
Br1231     Br  0.83338228  0.39112775  0.78239395    -0.02920
H1232       H  0.89056810  0.36167993  0.81453903     0.09240
H1233       H  0.85775119  0.14030930  0.82096864     0.07260
Br1234     Br  0.91505021  0.11055464  0.85272322    -0.03350
C1235       C  0.62088427  0.18361172  0.83503306    -0.09980
C1236       C  0.59534856  0.23643642  0.84075645     0.06220
C1237       C  0.59821156  0.30067450  0.82407938    -0.03750
C1238       C  0.62595050  0.31065711  0.80303827    -0.08200
C1239       C  0.65154568  0.25797994  0.79739442     0.05330
C1240       C  0.64862100  0.19358578  0.81381101    -0.03220
Br1241     Br  0.68187617  0.11723533  0.81006726    -0.02920
H1242       H  0.61973492  0.13422180  0.84803555     0.09240
H1243       H  0.62702726  0.36009984  0.79006511     0.07260
Br1244     Br  0.56486761  0.37706139  0.82708006    -0.03350
C1245       C  0.88371366  0.21733455  0.95474793    -0.09980
C1246       C  0.89800488  0.27093542  0.96079928     0.06220
C1247       C  0.88501616  0.31308056  0.98779460    -0.03750
C1248       C  0.85865989  0.29909599  0.00954751    -0.08200
C1249       C  0.84506292  0.24396357  0.00435605     0.05330
C1250       C  0.85737414  0.20322255  0.97655258    -0.03220
Br1251     Br  0.83845627  0.13008886  0.63330681    -0.02920
H1252       H  0.89303849  0.18665431  0.93282546     0.09240
H1253       H  0.84933758  0.32994156  0.03138744     0.07260
Br1254     Br  0.90321127  0.38746504  0.99713820    -0.03350
C1255       C  0.63269067  0.21075070  0.68336117    -0.09980
C1256       C  0.65089600  0.25554184  0.99827691     0.06220
C1257       C  0.64132615  0.29336181  0.96749281    -0.03750
C1258       C  0.61335007  0.28637853  0.95550732    -0.08200
C1259       C  0.59515100  0.24159197  0.97387775     0.05330
C1260       C  0.60491874  0.20294606  0.67106596    -0.03220
Br1261     Br  0.58071014  0.14084400  0.69701686    -0.02920
H1262       H  0.63969242  0.18325250  0.70779545     0.09240
H1263       H  0.60632380  0.31407188  0.93111974     0.07260
Br1264     Br  0.66637581  0.35229305  0.94034100    -0.03350
C1265       C  0.52618886  0.99976737  0.96239309    -0.09980
C1266       C  0.99662250  0.03061446  0.95215732     0.06220
C1267       C  0.96996180  0.02555950  0.97691180    -0.03750
C1268       C  0.97344575  0.99293360  0.67745887    -0.08200
C1269       C  0.50304147  0.96253353  0.68788320     0.05330
C1270       C  0.52964583  0.96622900  0.99610425    -0.03220
Br1271     Br  0.57176928  0.92826820  0.00518221    -0.02920
H1272       H  0.54714432  0.00274499  0.94423772     0.09240
H1273       H  0.95243772  0.99010485  0.69554442     0.07260
Br1274     Br  0.92770491  0.05911422  0.96654718    -0.03350
C1275       C  0.97158680  0.48532137  0.97842771    -0.09980
C1276       C  0.49811307  0.46414985  0.95453850     0.06220
C1277       C  0.52708688  0.48071823  0.96062608    -0.03750
C1278       C  0.52892674  0.51601622  0.99006936    -0.08200
C1279       C  0.00245273  0.53607350  0.68101523     0.05330
C1280       C  0.97347272  0.51975032  0.67479426    -0.03220
Br1281     Br  0.93565287  0.53910832  0.70647254    -0.02920
H1282       H  0.94911647  0.47344800  0.97460317     0.09240
H1283       H  0.55134084  0.52898946  0.99349969     0.07260
Br1284     Br  0.56493920  0.46004212  0.92913820    -0.03350
C1285       C  0.84740240  0.78729630  0.81728339    -0.09980
C1286       C  0.85026716  0.73075611  0.84169863     0.06220
C1287       C  0.88019992  0.68962736  0.84317560    -0.03750
C1288       C  0.90605001  0.70458161  0.82005972    -0.08200
C1289       C  0.90317991  0.76097629  0.79556836     0.05330
C1290       C  0.87327801  0.80223728  0.79414449    -0.03220
Br1291     Br  0.86544034  0.87660621  0.75930905    -0.02920
H1292       H  0.82475554  0.81957022  0.81580976     0.09240
H1293       H  0.92868710  0.67225798  0.82152819     0.07260
Br1294     Br  0.88815568  0.61519510  0.87797029    -0.03350
C1295       C  0.62729943  0.79981590  0.83640056    -0.09980
C1296       C  0.65503469  0.75220041  0.83070121     0.06220
C1297       C  0.65343278  0.69410090  0.81400609    -0.03750
C1298       C  0.62477524  0.68476100  0.80360308    -0.08200
C1299       C  0.59712243  0.73261151  0.80910258     0.05330
C1300       C  0.59867421  0.79050886  0.82593195    -0.03220
Br1301     Br  0.56214820  0.85683030  0.83699677    -0.02920
H1302       H  0.62756681  0.84370541  0.85029015     0.09240
H1303       H  0.62445535  0.64094363  0.78967421     0.07260
Br1304     Br  0.68987935  0.62768075  0.80274485    -0.03350
C1305       C  0.88739497  0.70775809  0.68194540    -0.09980
C1306       C  0.90485113  0.75427883  0.99713416     0.06220
C1307       C  0.89425659  0.79272945  0.96688106    -0.03750
C1308       C  0.86660746  0.78309332  0.95474379    -0.08200
C1309       C  0.84912342  0.73661726  0.97294720     0.05330
C1310       C  0.85958112  0.69875823  0.67006164    -0.03220
Br1311     Br  0.83590259  0.63711880  0.69709581    -0.02760
H1312       H  0.89486636  0.68012511  0.70615013     0.09240
H1313       H  0.85917197  0.81053499  0.93048791     0.07260
Br1314     Br  0.91727704  0.85684787  0.94085951    -0.03350
C1315       C  0.60794915  0.69663634  0.97986540    -0.09980
C1316       C  0.60248094  0.72839059  0.01145685     0.06220
C1317       C  0.62272926  0.77067514  0.68556602    -0.03750
C1318       C  0.64777042  0.78201362  0.99412814    -0.08200
C1319       C  0.65302380  0.75084262  0.96236445     0.05330
C1320       C  0.63302139  0.70789198  0.95513099    -0.03220
Br1321     Br  0.63746366  0.66676513  0.91120427    -0.02920
H1322       H  0.59229724  0.66431013  0.97413333     0.09240
H1323       H  0.66329475  0.81471889  0.66639522     0.07260
Br1324     Br  0.61799858  0.81301446  0.72919061    -0.03350
C1325       C  0.77870113  0.01012816  0.65853787    -0.09980
C1326       C  0.75140569  0.03513785  0.68051549     0.06220
C1327       C  0.72260316  0.01904920  0.00681320    -0.03750
C1328       C  0.72174408  0.98008166  0.97853186    -0.08200
C1329       C  0.74902098  0.95564266  0.95633115     0.05330
C1330       C  0.77780838  0.97173258  0.96339348    -0.03220
Br1331     Br  0.81686674  0.94621105  0.93470975    -0.02920
H1332       H  0.80113335  0.02165213  0.66295148     0.09240
H1333       H  0.69935039  0.96789541  0.97436715     0.07260
Br1334     Br  0.68346696  0.04572686  0.70183969    -0.03350
C1335       C  0.72192593  0.48071782  0.66911557    -0.09980
C1336       C  0.74914195  0.46771439  0.68695204     0.06220
C1337       C  0.77714087  0.48450250  0.00175752    -0.03750
C1338       C  0.77753439  0.51248698  0.96655498    -0.08200
C1339       C  0.75029772  0.52580093  0.94873197     0.05330
C1340       C  0.72234015  0.50870682  0.96720375    -0.03220
Br1341     Br  0.68426372  0.51826943  0.94534204    -0.02920
H1342       H  0.70024396  0.46715067  0.68217487     0.09240
H1343       H  0.79934266  0.52525280  0.95344317     0.07260
Br1344     Br  0.81556290  0.47328665  0.68990456    -0.03350
loop_ 
_geom_bond_atom_site_label_1 
_geom_bond_atom_site_label_2 
_geom_bond_distance 
_geom_bond_site_symmetry_2 
_ccdc_geom_bond_type 
O1           Ni7   1.888       .  S
O1           C22   1.267       .  A
O2          Ni25   1.901       .  S
O2           C11   1.267       .  A
O3           Ni7   1.902       .  S
O3          Ni25   1.881       .  S
O3          Ni19   1.944       .  S
O3           H26   0.967       .  S
C4           O21   1.283       .  A
C4           O13   1.282       .  A
C4          C176   1.494       .  S
O5          Ni24   1.946       .  S
O5           C11   1.276       .  A
O6          Ni24   1.904       .  S
O6            C8   1.265       .  A
Ni7          O10   1.914       .  S
Ni7          O12   1.914       .  S
C8           O18   1.263       .  A
C8          C199   1.449       .  S
O9          Ni25   1.907       .  S
O9           C15   1.275       .  A
O10          C15   1.274       .  A
C11         C209   1.503       .  S
O12          C14   1.274       .  A
O13         Ni24   1.930       .  S
C14          O20   1.279       .  A
C14         C166   1.490       .  S
C15         C189   1.454       .  S
H16          O17   0.966       .  S
O17         Ni25   1.922       .  S
O17         Ni19   1.909       .  S
O17         Ni24   1.915       .  S
O18         Ni19   1.898       .  S
Ni19         O23   1.928       .  S
Ni19         O21   1.936       .  S
O20         Ni25   1.944       .  S
C22          O23   1.264       .  A
C22         C219   1.498       .  S
O27         Ni33   1.892       .  S
O27         C720   1.269   1_455  A
O28         Ni51   1.897       .  S
O28          C37   1.265   1_455  A
O29         Ni33   1.897       .  S
O29         Ni51   1.873       .  S
O29        Ni717   1.924   1_455  S
O29          H52   0.967       .  S
C30          O47   1.277       .  A
C30          O39   1.286       .  A
C30         C106   1.502       .  S
O31         Ni50   1.954       .  S
O31         C709   1.278       .  A
O32         Ni50   1.900       .  S
O32          C34   1.264       .  A
Ni33         O36   1.910       .  S
Ni33         O38   1.924       .  S
C34          O44   1.265       .  A
C34         C126   1.447       .  S
O35         Ni51   1.896       .  S
O35          C41   1.275       .  A
O36          C41   1.276       .  A
C37         O703   1.278       .  A
C37         C156   1.501       .  S
O38          C40   1.276       .  A
O39         Ni50   1.939       .  S
C40          O46   1.273       .  A
C40         C116   1.498       .  S
C41         C139   1.440       .  S
H42          O43   0.965       .  S
O43         Ni45   1.906       .  S
O43         Ni50   1.913       .  S
O43        Ni723   1.918       .  S
O44         Ni45   1.898       .  S
Ni45         O49   1.926       .  S
Ni45         O47   1.923       .  S
Ni45        O701   1.924       .  S
O46         Ni51   1.932       .  S
C48          O49   1.265       .  A
C48         O699   1.269       .  A
C48         C146   1.502       .  S
Ni51        O715   1.918   1_455  S
O53         Ni59   1.952       .  S
O53         C746   1.277       .  A
O54         Ni77   1.933       .  S
O54          C63   1.265       .  A
O55         Ni59   1.913       .  S
O55         Ni77   1.906       .  S
O55        Ni743   1.921   1_455  S
O55          H78   0.966       .  S
C56          O73   1.276       .  A
C56          O65   1.276       .  A
C56         C186   1.453       .  S
O57         Ni76   1.887       .  S
O57         C735   1.267       .  A
O58         Ni76   1.915       .  S
O58          C60   1.273       .  A
Ni59         O62   1.932       .  S
Ni59         O64   1.903       .  S
C60          O70   1.277       .  A
C60         C169   1.489       .  S
O61         Ni77   1.938       .  S
O61          C67   1.284       .  A
O62          C67   1.284       .  A
C63         O729   1.267   1_455  A
C63         C149   1.504       .  S
O64         C514   1.265       .  A
O65        Ni300   1.915       .  S
C66         O288   1.265       .  A
C66         O296   1.264       .  A
C66         C196   1.449       .  S
C67         C179   1.492       .  S
H68         O293   0.967       .  S
O69         Ni71   1.877       .  S
O69         Ni76   1.901       .  S
O69        Ni749   1.941       .  S
O69         H516   0.967       .  S
O70         Ni71   1.940       .  S
Ni71         O75   1.896       .  S
Ni71        O521   1.906       .  S
Ni71        O727   1.921       .  S
O72         Ni77   1.901       .  S
O72         C514   1.264       .  A
O73        Ni295   1.906       .  S
C74          O75   1.266       .  A
C74         O725   1.277       .  A
C74         C159   1.501       .  S
Ni76        O513   1.915       .  S
Ni77        O741   1.941   1_455  S
O79         Ni85   1.946       .  S
O79         C100   1.275       .  A
O80        Ni103   1.921       .  S
O80          C89   1.262       .  A
O81         Ni85   1.917       .  S
O81        Ni103   1.910       .  S
O81         Ni97   1.920       .  S
O81         H104   0.966       .  S
C82          O99   1.273       .  A
C82          O91   1.274       .  A
C82         C136   1.441       .  S
O83        Ni102   1.891       .  S
O83          C89   1.269       .  A
O84        Ni102   1.920       .  S
O84          C86   1.276       .  A
Ni85         O88   1.934       .  S
Ni85         O90   1.902       .  S
C86          O96   1.276       .  A
C86         C119   1.498       .  S
O87        Ni103   1.925       .  S
O87          C93   1.276       .  A
O88          C93   1.283       .  A
C89         C216   1.497       .  S
O90         C540   1.265       .  A
O91        Ni326   1.909       .  S
C92         O314   1.265       .  A
C92         O322   1.261       .  A
C92         C129   1.447       .  S
C93         C109   1.503       .  S
H94         O319   0.967       .  S
O95        Ni103   1.931       .  S
O95         Ni97   1.879       .  S
O95        Ni102   1.898       .  S
O95         H542   0.967       .  S
O96         Ni97   1.940       .  S
Ni97        O101   1.901       .  S
Ni97        O547   1.897       .  S
O98        Ni103   1.891       .  S
O98         C540   1.261       .  A
O99        Ni321   1.897       .  S
C100        O101   1.266       .  A
C100        C206   1.503       .  S
Ni102       O539   1.909       .  S
C105        C106   1.407       .  A
C105        C110   1.403       .  A
C105        H112   1.083       .  S
C106        C107   1.422       .  A
C107        C108   1.402       .  A
C107       Br114   1.925       .  S
C108        C109   1.407       .  A
C108        H113   1.083       .  S
C109        C110   1.421       .  A
C110       Br111   1.922       .  S
C115        C116   1.408       .  A
C115        C120   1.405       .  A
C115        H122   1.083       .  S
C116        C117   1.417       .  A
C117        C118   1.402       .  A
C117       Br124   1.923       .  S
C118        C119   1.408       .  A
C118        H123   1.083       .  S
C119        C120   1.417       .  A
C120       Br121   1.921       .  S
C125        C126   1.402       .  A
C125        C130   1.390       .  A
C125        H132   1.084       .  S
C126        C127   1.400       .  A
C127        C128   1.389       .  A
C127       Br134   1.914       .  S
C128        C129   1.402       .  A
C128        H133   1.083       .  S
C129        C130   1.400       .  A
C130       Br355   1.917       .  S
Br131       C578   1.917       .  S
C135        C140   1.389       .  A
C135        C584   1.400   1_554  A
C135        H142   1.084       .  S
C136        C137   1.401       .  A
C136        C359   1.400       .  A
C137        C138   1.387       .  A
C137       Br144   1.915       .  S
C138        C139   1.399       .  A
C138        H143   1.084       .  S
C139        C364   1.402       .  A
C140        C587   1.402   1_554  A
C140       Br141   1.919       .  S
C145        C150   1.404       .  A
C145        C818   1.407   1_465  A
C145        H152   1.083   1_565  S
C146        C147   1.416       .  A
C146        C817   1.407   1_545  A
C147        C372   1.403   1_545  A
C147       Br154   1.915       .  S
C148        C595   1.403   1_564  A
C148        C821   1.408       .  A
C148        H153   1.083       .  S
C149        C820   1.408   1_455  A
C149        C598   1.418   1_554  A
C150        C373   1.418       .  A
C150       Br151   1.913       .  S
C155        C828   1.408       .  A
C155        C384   1.404       .  A
C155        H162   1.080       .  S
C156        C157   1.416   1_655  A
C156        C827   1.408       .  A
C157        C158   1.406       .  A
C157       Br164   1.921       .  S
C158       C1055   1.411       .  A
C158        H163   1.083       .  S
C159        C160   1.415       .  A
C159       C1278   1.411   1_554  A
C160        C603   1.404   1_554  A
C160       Br161   1.921       .  S
C165        C166   1.403       .  A
C165        C170   1.404       .  A
C165        H172   1.083       .  S
C166        C167   1.417       .  A
C167        C168   1.403       .  A
C167       Br174   1.922       .  S
C168        C169   1.403       .  A
C168        H173   1.084       .  S
C169        C170   1.417       .  A
C170       Br171   1.921       .  S
C175        C176   1.410       .  A
C175        C180   1.404       .  A
C175        H182   1.083       .  S
C176        C177   1.412       .  A
C177        C178   1.405       .  A
C177       Br184   1.919       .  S
C178        C179   1.409       .  A
C178        H183   1.083       .  S
C179        C180   1.410       .  A
C180       Br181   1.919       .  S
C185        C190   1.392       .  A
C185        C634   1.401   1_554  A
C185        H192   1.084       .  S
C186        C187   1.403       .  A
C186        C409   1.401       .  A
C187        C188   1.394       .  A
C187       Br194   1.919       .  S
C188        C189   1.402       .  A
C188        H193   1.083       .  S
C189        C414   1.403       .  A
C190        C637   1.403   1_554  A
C190       Br191   1.915       .  S
C195        C196   1.394       .  A
C195        C200   1.390       .  A
C195        H202   1.084       .  S
C196        C421   1.410       .  A
C197        C644   1.410       .  A
C197        C646   1.390   1_554  A
C197       Br204   1.915       .  S
C198        C199   1.394       .  A
C198        C421   1.390       .  A
C198        H427   1.084       .  S
C199        C200   1.409       .  A
C200       Br201   1.914       .  S
H203        C646   1.084       .  S
C205        C206   1.410   1_556  A
C205        C658   1.404   1_545  A
C205        H212   1.082       .  S
C206        C655   1.416       .  A
C207        C208   1.405   1_545  A
C207        C430   1.416       .  A
C207       Br438   1.921       .  S
C208        C209   1.411       .  A
C208        H213   1.083       .  S
C209        C210   1.415       .  A
C210        C429   1.404   1_565  A
C210       Br211   1.920       .  S
Br214       C655   1.921       .  S
C215        C216   1.407       .  A
C215        C668   1.404   1_554  A
C215        H222   1.082       .  S
C216        C665   1.414       .  A
C217        C218   1.403       .  A
C217        C440   1.414       .  A
C217       Br448   1.917       .  S
C218        C219   1.408       .  A
C218        H223   1.082       .  S
C219        C220   1.414       .  A
C220        C439   1.404       .  A
C220       Br221   1.914       .  S
Br224       C665   1.917       .  S
O225       Ni231   1.888       .  S
O225        C246   1.267       .  A
O226       Ni249   1.901       .  S
O226        C235   1.267       .  A
O227       Ni231   1.902       .  S
O227       Ni249   1.881       .  S
O227       Ni243   1.944       .  S
O227        H250   0.967       .  S
C228        O245   1.283       .  A
C228        O237   1.282       .  A
C228        C400   1.494       .  S
O229       Ni248   1.946       .  S
O229        C235   1.276       .  A
O230       Ni248   1.904       .  S
O230        C232   1.265       .  A
Ni231       O234   1.914       .  S
Ni231       O236   1.914       .  S
C232        O242   1.263       .  A
C232        C423   1.449       .  S
O233       Ni249   1.907       .  S
O233        C239   1.275       .  A
O234        C239   1.274       .  A
C235        C433   1.503       .  S
O236        C238   1.274       .  A
O237       Ni248   1.930       .  S
C238        O244   1.279       .  A
C238        C390   1.490       .  S
C239        C413   1.454       .  S
H240        O241   0.966       .  S
O241       Ni249   1.922       .  S
O241       Ni243   1.909       .  S
O241       Ni248   1.915       .  S
O242       Ni243   1.898       .  S
Ni243       O247   1.928       .  S
Ni243       O245   1.936       .  S
O244       Ni249   1.944       .  S
C246        O247   1.264       .  A
C246        C443   1.498       .  S
O251       Ni257   1.892       .  S
O251        C944   1.269   1_455  A
O252       Ni275   1.897       .  S
O252        C261   1.265   1_455  A
O253       Ni257   1.897       .  S
O253       Ni275   1.873       .  S
O253       Ni941   1.924   1_455  S
O253        H276   0.967       .  S
C254        O271   1.277       .  A
C254        O263   1.286       .  A
C254        C330   1.502       .  S
O255       Ni274   1.954       .  S
O255        C933   1.278       .  A
O256       Ni274   1.900       .  S
O256        C258   1.264       .  A
Ni257       O260   1.910       .  S
Ni257       O262   1.924       .  S
C258        O268   1.265       .  A
C258        C350   1.447       .  S
O259       Ni275   1.896       .  S
O259        C265   1.275       .  A
O260        C265   1.276       .  A
C261        O927   1.278       .  A
C261        C380   1.501       .  S
O262        C264   1.276       .  A
O263       Ni274   1.939       .  S
C264        O270   1.273       .  A
C264        C340   1.498       .  S
C265        C363   1.440       .  S
H266        O267   0.965       .  S
O267       Ni947   1.918       .  S
O267       Ni269   1.906       .  S
O267       Ni274   1.913       .  S
O268       Ni269   1.898       .  S
Ni269       O273   1.926       .  S
Ni269       O271   1.923       .  S
Ni269       O925   1.924       .  S
O270       Ni275   1.932       .  S
C272        O923   1.269       .  A
C272        O273   1.265       .  A
C272        C370   1.502       .  S
Ni275       O939   1.918   1_455  S
O277       Ni283   1.952       .  S
O277        C970   1.277       .  A
O278       Ni301   1.933       .  S
O278        C287   1.265       .  A
O279       Ni283   1.913       .  S
O279       Ni301   1.906       .  S
O279       Ni967   1.921   1_455  S
O279        H302   0.966       .  S
C280        O297   1.276       .  A
C280        O289   1.276       .  A
C280        C410   1.453       .  S
O281       Ni300   1.887       .  S
O281        C959   1.267       .  A
O282       Ni300   1.915       .  S
O282        C284   1.273       .  A
Ni283       O286   1.932       .  S
Ni283       O288   1.903       .  S
C284        O294   1.277       .  A
C284        C393   1.489       .  S
O285       Ni301   1.938       .  S
O285        C291   1.284       .  A
O286        C291   1.284       .  A
C287        O953   1.267   1_455  A
C287        C373   1.504       .  S
O289       Ni524   1.915       .  S
C290        O512   1.265       .  A
C290        O520   1.264       .  A
C290        C420   1.449       .  S
C291        C403   1.492       .  S
H292        O517   0.967       .  S
O293       Ni973   1.941       .  S
O293       Ni295   1.877       .  S
O293       Ni300   1.901       .  S
O294       Ni295   1.940       .  S
Ni295       O299   1.896       .  S
Ni295       O951   1.921       .  S
O296       Ni301   1.901       .  S
O297       Ni519   1.906       .  S
C298        O949   1.277       .  A
C298        O299   1.266       .  A
C298        C383   1.501       .  S
Ni301       O965   1.941   1_455  S
O303       Ni309   1.946       .  S
O303        C324   1.275       .  A
O304       Ni327   1.921       .  S
O304        C313   1.262       .  A
O305       Ni309   1.917       .  S
O305       Ni327   1.910       .  S
O305       Ni321   1.920       .  S
O305        H328   0.966       .  S
C306        O323   1.273       .  A
C306        O315   1.274       .  A
C306        C360   1.441       .  S
O307       Ni326   1.891       .  S
O307        C313   1.269       .  A
O308       Ni326   1.920       .  S
O308        C310   1.276       .  A
Ni309       O312   1.934       .  S
Ni309       O314   1.902       .  S
C310        O320   1.276       .  A
C310        C343   1.498       .  S
O311       Ni327   1.925       .  S
O311        C317   1.276       .  A
O312        C317   1.283       .  A
C313        C440   1.497       .  S
O315       Ni550   1.909       .  S
C316        O538   1.265       .  A
C316        O546   1.261       .  A
C316        C353   1.447       .  S
C317        C333   1.503       .  S
H318        O543   0.967       .  S
O319       Ni327   1.932       .  S
O319       Ni321   1.879       .  S
O319       Ni326   1.898       .  S
O320       Ni321   1.940       .  S
Ni321       O325   1.901       .  S
O322       Ni327   1.891       .  S
O323       Ni545   1.897       .  S
C324        O325   1.266       .  A
C324        C430   1.503       .  S
C329        C330   1.407       .  A
C329        C334   1.403       .  A
C329        H336   1.083       .  S
C330        C331   1.422       .  A
C331        C332   1.402       .  A
C331       Br338   1.925       .  S
C332        C333   1.407       .  A
C332        H337   1.083       .  S
C333        C334   1.421       .  A
C334       Br335   1.922       .  S
C339        C340   1.408       .  A
C339        C344   1.405       .  A
C339        H346   1.083       .  S
C340        C341   1.417       .  A
C341        C342   1.402       .  A
C341       Br348   1.923       .  S
C342        C343   1.408       .  A
C342        H347   1.083       .  S
C343        C344   1.417       .  A
C344       Br345   1.921       .  S
C349        C350   1.402       .  A
C349        C354   1.390       .  A
C349        H356   1.084       .  S
C350        C351   1.400       .  A
C351        C352   1.389       .  A
C351       Br358   1.914       .  S
C352        C353   1.402       .  A
C352        H357   1.083       .  S
C353        C354   1.400       .  A
C354       Br579   1.917       .  S
C359        C364   1.389       .  A
C359        H366   1.084       .  S
C360        C583   1.400       .  A
C360        C361   1.401       .  A
C361        C362   1.387       .  A
C361       Br368   1.915       .  S
C362        C363   1.399       .  A
C362        H367   1.084       .  S
C363        C588   1.402       .  A
C364       Br365   1.919       .  S
C369       C1042   1.407   1_465  A
C369        C374   1.404       .  A
C369        H376   1.083   1_565  S
C370       C1041   1.407   1_545  A
C370        C371   1.416       .  A
C371        C596   1.403   1_545  A
C371       Br378   1.915       .  S
C372       C1045   1.408       .  A
C372        H377   1.083       .  S
C373       C1044   1.408   1_455  A
C374        C597   1.418       .  A
C374       Br375   1.913       .  S
C379       C1052   1.408       .  A
C379        C608   1.404       .  A
C379        H386   1.080       .  S
C380       C1051   1.408       .  A
C380        C381   1.416   1_655  A
C381        C382   1.406       .  A
C381       Br388   1.921       .  S
C382       C1279   1.411       .  A
C382        H387   1.083       .  S
C383        C830   1.411       .  A
C383        C384   1.415       .  A
C384       Br385   1.921       .  S
C389        C390   1.403       .  A
C389        C394   1.404       .  A
C389        H396   1.083       .  S
C390        C391   1.417       .  A
C391        C392   1.403       .  A
C391       Br398   1.922       .  S
C392        C393   1.403       .  A
C392        H397   1.084       .  S
C393        C394   1.417       .  A
C394       Br395   1.921       .  S
C399        C400   1.410       .  A
C399        C404   1.404       .  A
C399        H406   1.083       .  S
C400        C401   1.412       .  A
C401        C402   1.405       .  A
C401       Br408   1.919       .  S
C402        C403   1.409       .  A
C402        H407   1.083       .  S
C403        C404   1.410       .  A
C404       Br405   1.919       .  S
C409        C414   1.392       .  A
C409        H416   1.084       .  S
C410        C633   1.401       .  A
C410        C411   1.403       .  A
C411        C412   1.394       .  A
C411       Br418   1.919       .  S
C412        C413   1.402       .  A
C412        H417   1.083       .  S
C413        C638   1.403       .  A
C414       Br415   1.915       .  S
C419        C420   1.394       .  A
C419        C424   1.390       .  A
C419        H426   1.084       .  S
C420        C645   1.410       .  A
C421       Br428   1.915       .  S
C422        C645   1.390       .  A
C422        C423   1.394       .  A
C422        H651   1.084       .  S
C423        C424   1.409       .  A
C424       Br425   1.914       .  S
C429        C430   1.410       .  A
C429        H436   1.082       .  S
C431        C654   1.416       .  A
C431        C432   1.405   1_545  A
C431       Br662   1.921       .  S
C432        C433   1.411       .  A
C432        H437   1.083       .  S
C433        C434   1.415       .  A
C434        C653   1.404   1_565  A
C434       Br435   1.920       .  S
C439        C440   1.407       .  A
C439        H446   1.082       .  S
C441        C664   1.414       .  A
C441        C442   1.403       .  A
C441       Br672   1.917       .  S
C442        C443   1.408       .  A
C442        H447   1.082       .  S
C443        C444   1.414       .  A
C444        C663   1.404       .  A
C444       Br445   1.914       .  S
O449       Ni455   1.888       .  S
O449        C470   1.267       .  A
O450       Ni473   1.901       .  S
O450        C459   1.267       .  A
O451       Ni455   1.902       .  S
O451       Ni473   1.881       .  S
O451       Ni467   1.944       .  S
O451        H474   0.967       .  S
C452        O469   1.283       .  A
C452        O461   1.282       .  A
C452        C624   1.494       .  S
O453       Ni472   1.946       .  S
O453        C459   1.276       .  A
O454       Ni472   1.904       .  S
O454        C456   1.265       .  A
Ni455       O458   1.914       .  S
Ni455       O460   1.914       .  S
C456        O466   1.263       .  A
C456        C647   1.449       .  S
O457       Ni473   1.907       .  S
O457        C463   1.275       .  A
O458        C463   1.274       .  A
C459        C657   1.503       .  S
O460        C462   1.274       .  A
O461       Ni472   1.930       .  S
C462        O468   1.279       .  A
C462        C614   1.490       .  S
C463        C637   1.454       .  S
H464        O465   0.966       .  S
O465       Ni473   1.922       .  S
O465       Ni467   1.909       .  S
O465       Ni472   1.915       .  S
O466       Ni467   1.898       .  S
Ni467       O471   1.928       .  S
Ni467       O469   1.936       .  S
O468       Ni473   1.944       .  S
C470        O471   1.264       .  A
C470        C667   1.498       .  S
O475       Ni481   1.892       .  S
O475       C1168   1.269   1_455  A
O476       Ni499   1.897       .  S
O476        C485   1.265   1_455  A
O477       Ni481   1.897       .  S
O477       Ni499   1.873       .  S
O477      Ni1165   1.924   1_455  S
O477        H500   0.967       .  S
C478        O495   1.277       .  A
C478        O487   1.286       .  A
C478        C554   1.502       .  S
O479       Ni498   1.954       .  S
O479       C1157   1.278       .  A
O480       Ni498   1.900       .  S
O480        C482   1.264       .  A
Ni481       O484   1.910       .  S
Ni481       O486   1.924       .  S
C482        O492   1.265       .  A
C482        C574   1.447       .  S
O483       Ni499   1.896       .  S
O483        C489   1.275       .  A
O484        C489   1.276       .  A
C485       O1151   1.278       .  A
C485        C604   1.501       .  S
O486        C488   1.276       .  A
O487       Ni498   1.939       .  S
C488        O494   1.273       .  A
C488        C564   1.498       .  S
C489        C587   1.440       .  S
H490        O491   0.965       .  S
O491      Ni1171   1.918       .  S
O491       Ni493   1.906       .  S
O491       Ni498   1.913       .  S
O492       Ni493   1.898       .  S
Ni493       O497   1.926       .  S
Ni493       O495   1.923       .  S
Ni493      O1149   1.924       .  S
O494       Ni499   1.932       .  S
C496       O1147   1.269       .  A
C496        O497   1.265       .  A
C496        C594   1.502       .  S
Ni499      O1163   1.918   1_455  S
O501       Ni507   1.952       .  S
O501       C1194   1.277       .  A
O502       Ni525   1.933       .  S
O502        C511   1.265       .  A
O503       Ni507   1.913       .  S
O503       Ni525   1.906       .  S
O503      Ni1191   1.921   1_455  S
O503        H526   0.966       .  S
C504        O521   1.276       .  A
C504        O513   1.276       .  A
C504        C634   1.453   1_554  S
O505       Ni524   1.887       .  S
O505       C1183   1.267       .  A
O506       Ni524   1.915       .  S
O506        C508   1.273       .  A
Ni507       O510   1.932       .  S
Ni507       O512   1.903       .  S
C508        O518   1.277       .  A
C508        C617   1.489       .  S
O509       Ni525   1.938       .  S
O509        C515   1.284       .  A
O510        C515   1.284       .  A
C511       O1177   1.267   1_455  A
C511        C597   1.504       .  S
C514        C644   1.449       .  S
C515        C627   1.492       .  S
O517      Ni1197   1.941       .  S
O517       Ni519   1.877       .  S
O517       Ni524   1.901       .  S
O518       Ni519   1.940       .  S
Ni519       O523   1.896       .  S
Ni519      O1175   1.921       .  S
O520       Ni525   1.901       .  S
C522       O1173   1.277       .  A
C522        O523   1.266       .  A
C522        C607   1.501       .  S
Ni525      O1189   1.941   1_455  S
O527       Ni533   1.946       .  S
O527        C548   1.275       .  A
O528       Ni551   1.921       .  S
O528        C537   1.262       .  A
O529       Ni533   1.917       .  S
O529       Ni551   1.910       .  S
O529       Ni545   1.920       .  S
O529        H552   0.966       .  S
C530        O547   1.273       .  A
C530        O539   1.274       .  A
C530        C584   1.441   1_554  S
O531       Ni550   1.891       .  S
O531        C537   1.269       .  A
O532       Ni550   1.920       .  S
O532        C534   1.276       .  A
Ni533       O536   1.934       .  S
Ni533       O538   1.902       .  S
C534        O544   1.276       .  A
C534        C567   1.498       .  S
O535       Ni551   1.925       .  S
O535        C541   1.276       .  A
O536        C541   1.283       .  A
C537        C664   1.497       .  S
C540        C577   1.447       .  S
C541        C557   1.503       .  S
O543       Ni551   1.932       .  S
O543       Ni545   1.879       .  S
O543       Ni550   1.898       .  S
O544       Ni545   1.940       .  S
Ni545       O549   1.901       .  S
O546       Ni551   1.891       .  S
C548        O549   1.266       .  A
C548        C654   1.503       .  S
C553        C554   1.407       .  A
C553        C558   1.403       .  A
C553        H560   1.083       .  S
C554        C555   1.422       .  A
C555        C556   1.402       .  A
C555       Br562   1.925       .  S
C556        C557   1.407       .  A
C556        H561   1.083       .  S
C557        C558   1.421       .  A
C558       Br559   1.922       .  S
C563        C564   1.408       .  A
C563        C568   1.405       .  A
C563        H570   1.083       .  S
C564        C565   1.417       .  A
C565        C566   1.402       .  A
C565       Br572   1.923       .  S
C566        C567   1.408       .  A
C566        H571   1.083       .  S
C567        C568   1.417       .  A
C568       Br569   1.921       .  S
C573        C574   1.402       .  A
C573        C578   1.390       .  A
C573        H580   1.084       .  S
C574        C575   1.400       .  A
C575        C576   1.389   1_556  A
C575       Br582   1.914       .  S
C576        C577   1.402       .  A
C576        H581   1.083       .  S
C577        C578   1.400   1_554  A
C583        C588   1.389       .  A
C583        H590   1.084       .  S
C584        C585   1.401       .  A
C585        C586   1.387       .  A
C585       Br592   1.915       .  S
C586        C587   1.399       .  A
C586        H591   1.084       .  S
C588       Br589   1.919       .  S
C593       C1266   1.407   1_465  A
C593        C598   1.404       .  A
C593        H600   1.083   1_565  S
C594       C1265   1.407   1_545  A
C594        C595   1.416       .  A
C595       Br602   1.915       .  S
C596       C1269   1.408       .  A
C596        H601   1.083       .  S
C597       C1268   1.408   1_455  A
C598       Br599   1.913   1_556  S
C603       C1276   1.408       .  A
C603        H610   1.080       .  S
C604       C1275   1.408       .  A
C604        C605   1.416   1_655  A
C605        C606   1.406       .  A
C605       Br612   1.921       .  S
C606        C831   1.411   1_556  A
C606        H611   1.083       .  S
C607       C1054   1.411       .  A
C607        C608   1.415       .  A
C608       Br609   1.921       .  S
C613        C614   1.403       .  A
C613        C618   1.404       .  A
C613        H620   1.083       .  S
C614        C615   1.417       .  A
C615        C616   1.403       .  A
C615       Br622   1.922       .  S
C616        C617   1.403       .  A
C616        H621   1.084       .  S
C617        C618   1.417       .  A
C618       Br619   1.921       .  S
C623        C624   1.410       .  A
C623        C628   1.404       .  A
C623        H630   1.083       .  S
C624        C625   1.412       .  A
C625        C626   1.405       .  A
C625       Br632   1.919       .  S
C626        C627   1.409       .  A
C626        H631   1.083       .  S
C627        C628   1.410       .  A
C628       Br629   1.919       .  S
C633        C638   1.392       .  A
C633        H640   1.084       .  S
C634        C635   1.403       .  A
C635        C636   1.394       .  A
C635       Br642   1.919       .  S
C636        C637   1.402       .  A
C636        H641   1.083       .  S
C638       Br639   1.915       .  S
C643        C644   1.394   1_556  A
C643        C648   1.390       .  A
C643        H650   1.084       .  S
C645       Br652   1.915       .  S
C646        C647   1.394       .  A
C647        C648   1.409       .  A
C648       Br649   1.914       .  S
C653        C654   1.410       .  A
C653        H660   1.082       .  S
C655        C656   1.405   1_544  A
C656        C657   1.411       .  A
C656        H661   1.083       .  S
C657        C658   1.415       .  A
C658       Br659   1.920       .  S
C663        C664   1.407       .  A
C663        H670   1.082       .  S
C665        C666   1.403   1_554  A
C666        C667   1.408       .  A
C666        H671   1.082       .  S
C667        C668   1.414       .  A
C668       Br669   1.914       .  S
O673       Ni679   1.888       .  S
O673        C694   1.267       .  A
O674       Ni697   1.901       .  S
O674        C683   1.267       .  A
O675       Ni679   1.902       .  S
O675       Ni697   1.881       .  S
O675       Ni691   1.944       .  S
O675        H698   0.967       .  S
C676        O693   1.283       .  A
C676        O685   1.282       .  A
C676        C848   1.494       .  S
O677       Ni696   1.946       .  S
O677        C683   1.276       .  A
O678       Ni696   1.904       .  S
O678        C680   1.265       .  A
Ni679       O682   1.914       .  S
Ni679       O684   1.914       .  S
C680        O690   1.263       .  A
C680        C871   1.449       .  S
O681       Ni697   1.907       .  S
O681        C687   1.275       .  A
O682        C687   1.274       .  A
C683        C881   1.503       .  S
O684        C686   1.274       .  A
O685       Ni696   1.930       .  S
C686        O692   1.279       .  A
C686        C838   1.490       .  S
C687        C861   1.454       .  S
H688        O689   0.966       .  S
O689       Ni697   1.922       .  S
O689       Ni691   1.909       .  S
O689       Ni696   1.915       .  S
O690       Ni691   1.898       .  S
Ni691       O695   1.928       .  S
Ni691       O693   1.936       .  S
O692       Ni697   1.944       .  S
C694        O695   1.264       .  A
C694        C891   1.498       .  S
O699       Ni705   1.892       .  S
O700       Ni723   1.897       .  S
O700        C709   1.265       .  A
O701       Ni705   1.897       .  S
O701       Ni723   1.873       .  S
O701        H724   0.967       .  S
C702        O719   1.277       .  A
C702        O711   1.286       .  A
C702        C778   1.502       .  S
O703       Ni722   1.954       .  S
O704       Ni722   1.900       .  S
O704        C706   1.264       .  A
Ni705       O708   1.910       .  S
Ni705       O710   1.924       .  S
C706        O716   1.265       .  A
C706        C798   1.447       .  S
O707       Ni723   1.896       .  S
O707        C713   1.275       .  A
O708        C713   1.276       .  A
C709        C828   1.501       .  S
O710        C712   1.276       .  A
O711       Ni722   1.939       .  S
C712        O718   1.273       .  A
C712        C788   1.498       .  S
C713        C811   1.440       .  S
H714        O715   0.965       .  S
O715       Ni717   1.906       .  S
O715       Ni722   1.913       .  S
O716       Ni717   1.898       .  S
Ni717       O721   1.926       .  S
Ni717       O719   1.923       .  S
O718       Ni723   1.932       .  S
C720        O721   1.265       .  A
C720        C818   1.502       .  S
O725       Ni731   1.952       .  S
O726       Ni749   1.933       .  S
O726        C735   1.265       .  A
O727       Ni731   1.913       .  S
O727       Ni749   1.906       .  S
O727        H750   0.966       .  S
C728        O745   1.276       .  A
C728        O737   1.276       .  A
C728        C858   1.453       .  S
O729       Ni748   1.887       .  S
O730       Ni748   1.915       .  S
O730        C732   1.273       .  A
Ni731       O734   1.932       .  S
Ni731       O736   1.903       .  S
C732        O742   1.277       .  A
C732        C841   1.489       .  S
O733       Ni749   1.938       .  S
O733        C739   1.284       .  A
O734        C739   1.284       .  A
C735        C821   1.504       .  S
O736       C1186   1.265       .  A
O737       Ni972   1.915       .  S
C738        O960   1.265       .  A
C738        O968   1.264       .  A
C738        C868   1.449       .  S
C739        C851   1.492       .  S
H740        O965   0.967       .  S
O741       Ni743   1.877       .  S
O741       Ni748   1.901       .  S
O741       H1188   0.967       .  S
O742       Ni743   1.940       .  S
Ni743       O747   1.896       .  S
Ni743      O1193   1.906       .  S
O744       Ni749   1.901       .  S
O744       C1186   1.264       .  A
O745       Ni967   1.906       .  S
C746        O747   1.266   1_455  A
C746        C831   1.501       .  S
Ni748      O1185   1.915       .  S
O751       Ni757   1.946       .  S
O751        C772   1.275       .  A
O752       Ni775   1.921       .  S
O752        C761   1.262       .  A
O753       Ni757   1.917       .  S
O753       Ni775   1.910       .  S
O753       Ni769   1.920       .  S
O753        H776   0.966       .  S
C754        O771   1.273       .  A
C754        O763   1.274       .  A
C754        C808   1.441       .  S
O755       Ni774   1.891       .  S
O755        C761   1.269       .  A
O756       Ni774   1.920       .  S
O756        C758   1.276       .  A
Ni757       O760   1.934       .  S
Ni757       O762   1.902       .  S
C758        O768   1.276       .  A
C758        C791   1.498       .  S
O759       Ni775   1.925       .  S
O759        C765   1.276       .  A
O760        C765   1.283       .  A
C761        C888   1.497       .  S
O762       C1212   1.265       .  A
O763       Ni998   1.909       .  S
C764        O986   1.265       .  A
C764        O994   1.261       .  A
C764        C801   1.447       .  S
C765        C781   1.503       .  S
H766        O991   0.967       .  S
O767       Ni775   1.931       .  S
O767       Ni769   1.879       .  S
O767       Ni774   1.898       .  S
O767       H1214   0.967       .  S
O768       Ni769   1.940       .  S
Ni769       O773   1.901       .  S
Ni769      O1219   1.897       .  S
O770       Ni775   1.891       .  S
O770       C1212   1.261       .  A
O771       Ni993   1.897       .  S
C772        O773   1.266       .  A
C772        C878   1.503       .  S
Ni774      O1211   1.909       .  S
C777        C778   1.407       .  A
C777        C782   1.403       .  A
C777        H784   1.083       .  S
C778        C779   1.422       .  A
C779        C780   1.402       .  A
C779       Br786   1.925       .  S
C780        C781   1.407       .  A
C780        H785   1.083       .  S
C781        C782   1.421       .  A
C782       Br783   1.922       .  S
C787        C788   1.408       .  A
C787        C792   1.405       .  A
C787        H794   1.083       .  S
C788        C789   1.417       .  A
C789        C790   1.402       .  A
C789       Br796   1.923       .  S
C790        C791   1.408       .  A
C790        H795   1.083       .  S
C791        C792   1.417       .  A
C792       Br793   1.921       .  S
C797        C798   1.402       .  A
C797        C802   1.390       .  A
C797        H804   1.084       .  S
C798        C799   1.400       .  A
C799        C800   1.389       .  A
C799       Br806   1.914       .  S
C800        C801   1.402       .  A
C800        H805   1.083       .  S
C801        C802   1.400       .  A
C802      Br1027   1.917       .  S
Br803      C1250   1.917       .  S
C807       C1256   1.400   1_554  A
C807        C812   1.389       .  A
C807        H814   1.084       .  S
C808       C1031   1.400       .  A
C808        C809   1.401       .  A
C809        C810   1.387       .  A
C809       Br816   1.915       .  S
C810        C811   1.399       .  A
C810        H815   1.084       .  S
C811       C1036   1.402       .  A
C812       C1259   1.402   1_554  A
C812       Br813   1.919       .  S
C817        C822   1.404       .  A
C817        H824   1.083   1_565  S
C818        C819   1.416       .  A
C819       C1044   1.403   1_545  A
C819       Br826   1.915       .  S
C820       C1267   1.403   1_564  A
C820        H825   1.083       .  S
C821       C1270   1.418   1_554  A
C822       C1045   1.418       .  A
C822       Br823   1.913       .  S
C827       C1056   1.404       .  A
C827        H834   1.080       .  S
C828        C829   1.416       .  A
C829        C830   1.406       .  A
C829       Br836   1.921       .  S
C830        H835   1.083       .  S
C831        C832   1.415   1_455  A
C832       C1275   1.404   1_554  A
C832       Br833   1.921       .  S
C837        C838   1.403       .  A
C837        C842   1.404       .  A
C837        H844   1.083       .  S
C838        C839   1.417       .  A
C839        C840   1.403       .  A
C839       Br846   1.922       .  S
C840        C841   1.403       .  A
C840        H845   1.084       .  S
C841        C842   1.417       .  A
C842       Br843   1.921       .  S
C847        C848   1.410       .  A
C847        C852   1.404       .  A
C847        H854   1.083       .  S
C848        C849   1.412       .  A
C849        C850   1.405       .  A
C849       Br856   1.919       .  S
C850        C851   1.409       .  A
C850        H855   1.083       .  S
C851        C852   1.410       .  A
C852       Br853   1.919       .  S
C857       C1306   1.401   1_554  A
C857        C862   1.392       .  A
C857        H864   1.084       .  S
C858       C1081   1.401       .  A
C858        C859   1.403       .  A
C859        C860   1.394       .  A
C859       Br866   1.919       .  S
C860        C861   1.402       .  A
C860        H865   1.083       .  S
C861       C1086   1.403       .  A
C862       C1309   1.403   1_554  A
C862       Br863   1.915       .  S
C867        C868   1.394       .  A
C867        C872   1.390       .  A
C867        H874   1.084       .  S
C868       C1093   1.410       .  A
C869       C1316   1.410       .  A
C869       C1318   1.390   1_554  A
C869       Br876   1.915       .  S
C870       C1093   1.390       .  A
C870        C871   1.394       .  A
C870       H1099   1.084       .  S
C871        C872   1.409       .  A
C872       Br873   1.914       .  S
H875       C1318   1.084       .  S
C877        C878   1.410   1_556  A
C877       C1330   1.404   1_545  A
C877        H884   1.082       .  S
C878       C1327   1.416       .  A
C879       C1102   1.416       .  A
C879        C880   1.405   1_545  A
C879      Br1110   1.921       .  S
C880        C881   1.411       .  A
C880        H885   1.083       .  S
C881        C882   1.415       .  A
C882       C1101   1.404   1_565  A
C882       Br883   1.920       .  S
Br886      C1327   1.921       .  S
C887        C888   1.407       .  A
C887       C1340   1.404   1_554  A
C887        H894   1.082       .  S
C888       C1337   1.414       .  A
C889       C1112   1.414       .  A
C889        C890   1.403       .  A
C889      Br1120   1.917       .  S
C890        C891   1.408       .  A
C890        H895   1.082       .  S
C891        C892   1.414       .  A
C892       C1111   1.404       .  A
C892       Br893   1.914       .  S
Br896      C1337   1.917       .  S
O897       Ni903   1.888       .  S
O897        C918   1.267       .  A
O898       Ni921   1.901       .  S
O898        C907   1.267       .  A
O899       Ni903   1.902       .  S
O899       Ni921   1.881       .  S
O899       Ni915   1.944       .  S
O899        H922   0.967       .  S
C900        O917   1.283       .  A
C900        O909   1.282       .  A
C900       C1072   1.494       .  S
O901       Ni920   1.946       .  S
O901        C907   1.276       .  A
O902       Ni920   1.904       .  S
O902        C904   1.265       .  A
Ni903       O906   1.914       .  S
Ni903       O908   1.914       .  S
C904        O914   1.263       .  A
C904       C1095   1.449       .  S
O905       Ni921   1.907       .  S
O905        C911   1.275       .  A
O906        C911   1.274       .  A
C907       C1105   1.503       .  S
O908        C910   1.274       .  A
O909       Ni920   1.930       .  S
C910        O916   1.279       .  A
C910       C1062   1.490       .  S
C911       C1085   1.454       .  S
H912        O913   0.966       .  S
O913       Ni921   1.922       .  S
O913       Ni915   1.909       .  S
O913       Ni920   1.915       .  S
O914       Ni915   1.898       .  S
Ni915       O919   1.928       .  S
Ni915       O917   1.936       .  S
O916       Ni921   1.944       .  S
C918        O919   1.264       .  A
C918       C1115   1.498       .  S
O923       Ni929   1.892       .  S
O924       Ni947   1.897       .  S
O924        C933   1.265       .  A
O925       Ni929   1.897       .  S
O925       Ni947   1.873       .  S
O925        H948   0.967       .  S
C926        O943   1.277       .  A
C926        O935   1.286       .  A
C926       C1002   1.502       .  S
O927       Ni946   1.954       .  S
O928       Ni946   1.900       .  S
O928        C930   1.264       .  A
Ni929       O932   1.910       .  S
Ni929       O934   1.924       .  S
C930        O940   1.265       .  A
C930       C1022   1.447       .  S
O931       Ni947   1.896       .  S
O931        C937   1.275       .  A
O932        C937   1.276       .  A
C933       C1052   1.501       .  S
O934        C936   1.276       .  A
O935       Ni946   1.939       .  S
C936        O942   1.273       .  A
C936       C1012   1.498       .  S
C937       C1035   1.440       .  S
H938        O939   0.965       .  S
O939       Ni941   1.906       .  S
O939       Ni946   1.913       .  S
O940       Ni941   1.898       .  S
Ni941       O945   1.926       .  S
Ni941       O943   1.923       .  S
O942       Ni947   1.932       .  S
C944        O945   1.265       .  A
C944       C1042   1.502       .  S
O949       Ni955   1.952       .  S
O950       Ni973   1.933       .  S
O950        C959   1.265       .  A
O951       Ni955   1.913       .  S
O951       Ni973   1.906       .  S
O951        H974   0.966       .  S
C952        O969   1.276       .  A
C952        O961   1.276       .  A
C952       C1082   1.453       .  S
O953       Ni972   1.887       .  S
O954       Ni972   1.915       .  S
O954        C956   1.273       .  A
Ni955       O958   1.932       .  S
Ni955       O960   1.903       .  S
C956        O966   1.277       .  A
C956       C1065   1.489       .  S
O957       Ni973   1.938       .  S
O957        C963   1.284       .  A
O958        C963   1.284       .  A
C959       C1045   1.504       .  S
O961      Ni1196   1.915       .  S
C962       O1184   1.265       .  A
C962       O1192   1.264       .  A
C962       C1092   1.449       .  S
C963       C1075   1.492       .  S
H964       O1189   0.967       .  S
O965       Ni967   1.877       .  S
O965       Ni972   1.901       .  S
O966       Ni967   1.940       .  S
Ni967       O971   1.896       .  S
O968       Ni973   1.901       .  S
O969      Ni1191   1.906       .  S
C970        O971   1.266   1_455  A
C970       C1055   1.501       .  S
O975       Ni981   1.946       .  S
O975        C996   1.275       .  A
O976       Ni999   1.921       .  S
O976        C985   1.262       .  A
O977       Ni981   1.917       .  S
O977       Ni999   1.910       .  S
O977       Ni993   1.920       .  S
O977       H1000   0.966       .  S
C978        O995   1.273       .  A
C978        O987   1.274       .  A
C978       C1032   1.441       .  S
O979       Ni998   1.891       .  S
O979        C985   1.269       .  A
O980       Ni998   1.920       .  S
O980        C982   1.276       .  A
Ni981       O984   1.934       .  S
Ni981       O986   1.902       .  S
C982        O992   1.276       .  A
C982       C1015   1.498       .  S
O983       Ni999   1.925       .  S
O983        C989   1.276       .  A
O984        C989   1.283       .  A
C985       C1112   1.497       .  S
O987      Ni1222   1.909       .  S
C988       O1210   1.265       .  A
C988       O1218   1.261       .  A
C988       C1025   1.447       .  S
C989       C1005   1.503       .  S
H990       O1215   0.967       .  S
O991       Ni999   1.932       .  S
O991       Ni993   1.879       .  S
O991       Ni998   1.898       .  S
O992       Ni993   1.940       .  S
Ni993       O997   1.901       .  S
O994       Ni999   1.891       .  S
O995      Ni1217   1.897       .  S
C996        O997   1.266       .  A
C996       C1102   1.503       .  S
C1001      C1002   1.407       .  A
C1001      C1006   1.403       .  A
C1001      H1008   1.083       .  S
C1002      C1003   1.422       .  A
C1003      C1004   1.402       .  A
C1003     Br1010   1.925       .  S
C1004      C1005   1.407       .  A
C1004      H1009   1.083       .  S
C1005      C1006   1.421       .  A
C1006     Br1007   1.922       .  S
C1011      C1012   1.408       .  A
C1011      C1016   1.405       .  A
C1011      H1018   1.083       .  S
C1012      C1013   1.417       .  A
C1013      C1014   1.402       .  A
C1013     Br1020   1.923       .  S
C1014      C1015   1.408       .  A
C1014      H1019   1.083       .  S
C1015      C1016   1.417       .  A
C1016     Br1017   1.921       .  S
C1021      C1022   1.402       .  A
C1021      C1026   1.390       .  A
C1021      H1028   1.084       .  S
C1022      C1023   1.400       .  A
C1023      C1024   1.389       .  A
C1023     Br1030   1.914       .  S
C1024      C1025   1.402       .  A
C1024      H1029   1.083       .  S
C1025      C1026   1.400       .  A
C1026     Br1251   1.917       .  S
C1031      C1036   1.389       .  A
C1031      H1038   1.084       .  S
C1032      C1255   1.400       .  A
C1032      C1033   1.401       .  A
C1033      C1034   1.387       .  A
C1033     Br1040   1.915       .  S
C1034      C1035   1.399       .  A
C1034      H1039   1.084       .  S
C1035      C1260   1.402       .  A
C1036     Br1037   1.919       .  S
C1041      C1046   1.404       .  A
C1041      H1048   1.083   1_565  S
C1042      C1043   1.416       .  A
C1043      C1268   1.403   1_545  A
C1043     Br1050   1.915       .  S
C1044      H1049   1.083       .  S
C1046      C1269   1.418       .  A
C1046     Br1047   1.913       .  S
C1051      C1280   1.404       .  A
C1051      H1058   1.080       .  S
C1052      C1053   1.416       .  A
C1053      C1054   1.406       .  A
C1053     Br1060   1.921       .  S
C1054      H1059   1.083       .  S
C1055      C1056   1.415   1_455  A
C1056     Br1057   1.921       .  S
C1061      C1062   1.403       .  A
C1061      C1066   1.404       .  A
C1061      H1068   1.083       .  S
C1062      C1063   1.417       .  A
C1063      C1064   1.403       .  A
C1063     Br1070   1.922       .  S
C1064      C1065   1.403       .  A
C1064      H1069   1.084       .  S
C1065      C1066   1.417       .  A
C1066     Br1067   1.921       .  S
C1071      C1072   1.410       .  A
C1071      C1076   1.404       .  A
C1071      H1078   1.083       .  S
C1072      C1073   1.412       .  A
C1073      C1074   1.405       .  A
C1073     Br1080   1.919       .  S
C1074      C1075   1.409       .  A
C1074      H1079   1.083       .  S
C1075      C1076   1.410       .  A
C1076     Br1077   1.919       .  S
C1081      C1086   1.392       .  A
C1081      H1088   1.084       .  S
C1082      C1305   1.401       .  A
C1082      C1083   1.403       .  A
C1083      C1084   1.394       .  A
C1083     Br1090   1.919       .  S
C1084      C1085   1.402       .  A
C1084      H1089   1.083       .  S
C1085      C1310   1.403       .  A
C1086     Br1087   1.915       .  S
C1091      C1092   1.394       .  A
C1091      C1096   1.390       .  A
C1091      H1098   1.084       .  S
C1092      C1317   1.410       .  A
C1093     Br1100   1.915       .  S
C1094      C1317   1.390       .  A
C1094      C1095   1.394       .  A
C1094      H1323   1.084       .  S
C1095      C1096   1.409       .  A
C1096     Br1097   1.914       .  S
C1101      C1102   1.410       .  A
C1101      H1108   1.082       .  S
C1103      C1326   1.416       .  A
C1103      C1104   1.405   1_545  A
C1103     Br1334   1.921       .  S
C1104      C1105   1.411       .  A
C1104      H1109   1.083       .  S
C1105      C1106   1.415       .  A
C1106      C1325   1.404   1_565  A
C1106     Br1107   1.920       .  S
C1111      C1112   1.407       .  A
C1111      H1118   1.082       .  S
C1113      C1336   1.414       .  A
C1113      C1114   1.403       .  A
C1113     Br1344   1.917       .  S
C1114      C1115   1.408       .  A
C1114      H1119   1.082       .  S
C1115      C1116   1.414       .  A
C1116      C1335   1.404       .  A
C1116     Br1117   1.914       .  S
O1121     Ni1127   1.888       .  S
O1121      C1142   1.267       .  A
O1122     Ni1145   1.901       .  S
O1122      C1131   1.267       .  A
O1123     Ni1127   1.902       .  S
O1123     Ni1145   1.881       .  S
O1123     Ni1139   1.944       .  S
O1123      H1146   0.967       .  S
C1124      O1141   1.283       .  A
C1124      O1133   1.282       .  A
C1124      C1296   1.494       .  S
O1125     Ni1144   1.946       .  S
O1125      C1131   1.276       .  A
O1126     Ni1144   1.904       .  S
O1126      C1128   1.265       .  A
Ni1127     O1130   1.914       .  S
Ni1127     O1132   1.914       .  S
C1128      O1138   1.263       .  A
C1128      C1319   1.449       .  S
O1129     Ni1145   1.907       .  S
O1129      C1135   1.275       .  A
O1130      C1135   1.274       .  A
C1131      C1329   1.503       .  S
O1132      C1134   1.274       .  A
O1133     Ni1144   1.930       .  S
C1134      O1140   1.279       .  A
C1134      C1286   1.490       .  S
C1135      C1309   1.454       .  S
H1136      O1137   0.966       .  S
O1137     Ni1145   1.922       .  S
O1137     Ni1139   1.909       .  S
O1137     Ni1144   1.915       .  S
O1138     Ni1139   1.898       .  S
Ni1139     O1143   1.928       .  S
Ni1139     O1141   1.936       .  S
O1140     Ni1145   1.944       .  S
C1142      O1143   1.264       .  A
C1142      C1339   1.498       .  S
O1147     Ni1153   1.892       .  S
O1148     Ni1171   1.897       .  S
O1148      C1157   1.265       .  A
O1149     Ni1153   1.897       .  S
O1149     Ni1171   1.873       .  S
O1149      H1172   0.967       .  S
C1150      O1167   1.277       .  A
C1150      O1159   1.286       .  A
C1150      C1226   1.502       .  S
O1151     Ni1170   1.954       .  S
O1152     Ni1170   1.900       .  S
O1152      C1154   1.264       .  A
Ni1153     O1156   1.910       .  S
Ni1153     O1158   1.924       .  S
C1154      O1164   1.265       .  A
C1154      C1246   1.447       .  S
O1155     Ni1171   1.896       .  S
O1155      C1161   1.275       .  A
O1156      C1161   1.276       .  A
C1157      C1276   1.501       .  S
O1158      C1160   1.276       .  A
O1159     Ni1170   1.939       .  S
C1160      O1166   1.273       .  A
C1160      C1236   1.498       .  S
C1161      C1259   1.440       .  S
H1162      O1163   0.965       .  S
O1163     Ni1165   1.906       .  S
O1163     Ni1170   1.913       .  S
O1164     Ni1165   1.898       .  S
Ni1165     O1169   1.926       .  S
Ni1165     O1167   1.923       .  S
O1166     Ni1171   1.932       .  S
C1168      O1169   1.265       .  A
C1168      C1266   1.502       .  S
O1173     Ni1179   1.952       .  S
O1174     Ni1197   1.933       .  S
O1174      C1183   1.265       .  A
O1175     Ni1179   1.913       .  S
O1175     Ni1197   1.906       .  S
O1175      H1198   0.966       .  S
C1176      O1193   1.276       .  A
C1176      O1185   1.276       .  A
C1176      C1306   1.453   1_554  S
O1177     Ni1196   1.887       .  S
O1178     Ni1196   1.915       .  S
O1178      C1180   1.273       .  A
Ni1179     O1182   1.932       .  S
Ni1179     O1184   1.903       .  S
C1180      O1190   1.277       .  A
C1180      C1289   1.489       .  S
O1181     Ni1197   1.938       .  S
O1181      C1187   1.284       .  A
O1182      C1187   1.284       .  A
C1183      C1269   1.504       .  S
C1186      C1316   1.449       .  S
C1187      C1299   1.492       .  S
O1189     Ni1191   1.877       .  S
O1189     Ni1196   1.901       .  S
O1190     Ni1191   1.940       .  S
Ni1191     O1195   1.896       .  S
O1192     Ni1197   1.901       .  S
C1194      O1195   1.266   1_455  A
C1194      C1279   1.501       .  S
O1199     Ni1205   1.946       .  S
O1199      C1220   1.275       .  A
O1200     Ni1223   1.921       .  S
O1200      C1209   1.262       .  A
O1201     Ni1205   1.917       .  S
O1201     Ni1223   1.910       .  S
O1201     Ni1217   1.920       .  S
O1201      H1224   0.966       .  S
C1202      O1219   1.273       .  A
C1202      O1211   1.274       .  A
C1202      C1256   1.441   1_554  S
O1203     Ni1222   1.891       .  S
O1203      C1209   1.269       .  A
O1204     Ni1222   1.920       .  S
O1204      C1206   1.276       .  A
Ni1205     O1208   1.934       .  S
Ni1205     O1210   1.902       .  S
C1206      O1216   1.276       .  A
C1206      C1239   1.498       .  S
O1207     Ni1223   1.925       .  S
O1207      C1213   1.276       .  A
O1208      C1213   1.283       .  A
C1209      C1336   1.497       .  S
C1212      C1249   1.447       .  S
C1213      C1229   1.503       .  S
O1215     Ni1223   1.932       .  S
O1215     Ni1217   1.879       .  S
O1215     Ni1222   1.898       .  S
O1216     Ni1217   1.940       .  S
Ni1217     O1221   1.901       .  S
O1218     Ni1223   1.891       .  S
C1220      O1221   1.266       .  A
C1220      C1326   1.503       .  S
C1225      C1226   1.407       .  A
C1225      C1230   1.403       .  A
C1225      H1232   1.083       .  S
C1226      C1227   1.422       .  A
C1227      C1228   1.402       .  A
C1227     Br1234   1.925       .  S
C1228      C1229   1.407       .  A
C1228      H1233   1.083       .  S
C1229      C1230   1.421       .  A
C1230     Br1231   1.922       .  S
C1235      C1236   1.408       .  A
C1235      C1240   1.405       .  A
C1235      H1242   1.083       .  S
C1236      C1237   1.417       .  A
C1237      C1238   1.402       .  A
C1237     Br1244   1.923       .  S
C1238      C1239   1.408       .  A
C1238      H1243   1.083       .  S
C1239      C1240   1.417       .  A
C1240     Br1241   1.921       .  S
C1245      C1246   1.402       .  A
C1245      C1250   1.390       .  A
C1245      H1252   1.084       .  S
C1246      C1247   1.400       .  A
C1247      C1248   1.389   1_556  A
C1247     Br1254   1.914       .  S
C1248      C1249   1.402       .  A
C1248      H1253   1.083       .  S
C1249      C1250   1.400   1_554  A
C1255      C1260   1.389       .  A
C1255      H1262   1.084       .  S
C1256      C1257   1.401       .  A
C1257      C1258   1.387       .  A
C1257     Br1264   1.915       .  S
C1258      C1259   1.399       .  A
C1258      H1263   1.084       .  S
C1260     Br1261   1.919       .  S
C1265      C1270   1.404       .  A
C1265      H1272   1.083   1_565  S
C1266      C1267   1.416       .  A
C1267     Br1274   1.915       .  S
C1268      H1273   1.083       .  S
C1270     Br1271   1.913   1_556  S
C1275      H1282   1.080       .  S
C1276      C1277   1.416       .  A
C1277      C1278   1.406       .  A
C1277     Br1284   1.921       .  S
C1278      H1283   1.083       .  S
C1279      C1280   1.415   1_455  A
C1280     Br1281   1.921       .  S
C1285      C1286   1.403       .  A
C1285      C1290   1.404       .  A
C1285      H1292   1.083       .  S
C1286      C1287   1.417       .  A
C1287      C1288   1.403       .  A
C1287     Br1294   1.922       .  S
C1288      C1289   1.403       .  A
C1288      H1293   1.084       .  S
C1289      C1290   1.417       .  A
C1290     Br1291   1.921       .  S
C1295      C1296   1.410       .  A
C1295      C1300   1.404       .  A
C1295      H1302   1.083       .  S
C1296      C1297   1.412       .  A
C1297      C1298   1.405       .  A
C1297     Br1304   1.919       .  S
C1298      C1299   1.409       .  A
C1298      H1303   1.083       .  S
C1299      C1300   1.410       .  A
C1300     Br1301   1.919       .  S
C1305      C1310   1.392       .  A
C1305      H1312   1.084       .  S
C1306      C1307   1.403       .  A
C1307      C1308   1.394       .  A
C1307     Br1314   1.919       .  S
C1308      C1309   1.402       .  A
C1308      H1313   1.083       .  S
C1310     Br1311   1.915       .  S
C1315      C1316   1.394   1_556  A
C1315      C1320   1.390       .  A
C1315      H1322   1.084       .  S
C1317     Br1324   1.915       .  S
C1318      C1319   1.394       .  A
C1319      C1320   1.409       .  A
C1320     Br1321   1.914       .  S
C1325      C1326   1.410       .  A
C1325      H1332   1.082       .  S
C1327      C1328   1.405   1_544  A
C1328      C1329   1.411       .  A
C1328      H1333   1.083       .  S
C1329      C1330   1.415       .  A
C1330     Br1331   1.920       .  S
C1335      C1336   1.407       .  A
C1335      H1342   1.082       .  S
C1337      C1338   1.403   1_554  A
C1338      C1339   1.408       .  A
C1338      H1343   1.082       .  S
C1339      C1340   1.414       .  A
C1340     Br1341   1.914       .  S
