geometry optimzed in LAMMPS
_audit_creation_date              2020-12-01 
_audit_creation_method            'lammps2cif' 
_symmetry_space_group_name_H-M    'P1' 
_symmetry_Int_Tables_number       1 
_symmetry_cell_setting            triclinic 
loop_ 
_symmetry_equiv_pos_as_xyz 
  x,y,z 
_cell_length_a                    33.8237832 
_cell_length_b                    33.7953414540647 
_cell_length_c                    35.952590735353716 
_cell_angle_alpha                 89.90984901182031 
_cell_angle_beta                  89.85049627157474 
_cell_angle_gamma                 89.964235161946 
loop_ 
_atom_site_label 
_atom_site_type_symbol 
_atom_site_fract_x 
_atom_site_fract_y 
_atom_site_fract_z 
_atom_site_charge 
O1          O  0.31207247  0.74430310  0.24772731    -0.72100
O2          O  0.21318483  0.73038109  0.29564271    -0.72400
O3          O  0.25582351  0.68829876  0.24656618    -0.72200
O4          O  0.26951589  0.78625233  0.29659716    -0.72200
O5          O  0.23941232  0.81671221  0.25164668    -0.72200
O6          O  0.22829879  0.71908053  0.20022717    -0.72200
O7          O  0.18394400  0.75985032  0.24961357    -0.72200
O8          O  0.28334081  0.77580010  0.20266079    -0.72300
V9          V  0.26206193  0.73790360  0.27074612     1.35200
V10         V  0.23422154  0.76727393  0.22694781     1.35200
C11         C  0.31462949  0.76204145  0.21687522     0.77100
C12         C  0.18162656  0.74249426  0.28075857     0.77100
C13         C  0.24043290  0.68714647  0.21458234     0.77000
C14         C  0.25668669  0.81819321  0.28276186     0.77000
C15         C  0.53398889  0.77552277  0.13599133     0.02800
C16         C  0.49860003  0.77819187  0.15605413    -0.13400
C17         C  0.46225760  0.77933980  0.13747922     0.00300
C18         C  0.46159446  0.77787860  0.09849056    -0.11900
C19         C  0.49700428  0.77562058  0.07819411     0.02800
C20         C  0.53320381  0.77533644  0.09710375    -0.11300
H21         H  0.49933053  0.77834241  0.18620311     0.08300
H22         H  0.43354186  0.77707223  0.08400739     0.05900
H23         H  0.56068839  0.77359068  0.08161550     0.05700
C24         C  0.52903245  0.76901506  0.85854132     0.02800
C25         C  0.49270480  0.76455454  0.84036066    -0.13400
C26         C  0.45757292  0.76113617  0.86085167     0.00300
C27         C  0.45876913  0.76360058  0.89972172    -0.11900
C28         C  0.49485371  0.76871381  0.91808877     0.02800
C29         C  0.53000895  0.77056591  0.89750203    -0.11300
H30         H  0.49181937  0.76354540  0.81023984     0.08300
H31         H  0.43165523  0.76129123  0.91572630     0.05900
H32         H  0.55804809  0.77329165  0.91179614     0.05700
C33         C  0.03248022  0.73189136  0.35903723     0.02800
C34         C  0.03193237  0.72928988  0.39798524    -0.13400
C35         C  0.99591563  0.72655623  0.41725940     0.00300
C36         C  0.96034840  0.72652655  0.39740974    -0.11900
C37         C  0.96063353  0.72868009  0.35852850     0.02800
C38         C  0.99668952  0.73121664  0.33941101    -0.11300
H39         H  0.05945829  0.73019885  0.41333303     0.08300
H40         H  0.93242025  0.72519936  0.41223016     0.05900
H41         H  0.99684823  0.73295379  0.30930398     0.05700
C42         C  0.03052365  0.72375053  0.63599202     0.02800
C43         C  0.99471680  0.72356585  0.65557777    -0.13400
C44         C  0.95858798  0.72512851  0.63663408     0.00300
C45         C  0.95858551  0.72676089  0.59760097    -0.11900
C46         C  0.99436382  0.72671980  0.57772099     0.02800
C47         C  0.03022906  0.72529556  0.59708281    -0.11300
H48         H  0.99503004  0.72260935  0.68572226     0.08300
H49         H  0.93084433  0.72853358  0.58269981     0.05900
H50         H  0.05793034  0.72628161  0.58187770     0.05700
O51         O  0.17946191  0.75145637  0.74724768    -0.72100
O52         O  0.27663794  0.76078340  0.79835371    -0.72400
O53         O  0.23699392  0.80565392  0.74942922    -0.72200
O54         O  0.21897413  0.70647379  0.79615891    -0.72200
O55         O  0.24885794  0.67679600  0.75054619    -0.72200
O56         O  0.26746125  0.77592168  0.70414097    -0.72200
O57         O  0.30676146  0.73099638  0.75298574    -0.72200
O58         O  0.20943661  0.72210814  0.70151487    -0.72300
V59         V  0.22860229  0.75547092  0.77193292     1.35200
V60         V  0.25751572  0.72696144  0.72818571     1.35200
C61         C  0.17794750  0.73597005  0.71535148     0.77100
C62         C  0.30839612  0.74804669  0.78421996     0.77100
C63         C  0.25550791  0.80767152  0.71889409     0.77000
C64         C  0.23078313  0.67470096  0.78131798     0.77000
C65         C  0.47302553  0.23755389  0.14021446     0.02800
C66         C  0.47306401  0.23628921  0.10127496    -0.13400
C67         C  0.50891152  0.23501978  0.08153774     0.00300
C68         C  0.54474617  0.23426805  0.10117709    -0.11900
C69         C  0.54477889  0.23487538  0.14023360     0.02800
C70         C  0.50882347  0.23650709  0.15950531    -0.11300
H71         H  0.44523909  0.23630879  0.08638930     0.08300
H72         H  0.57252742  0.23388048  0.08609344     0.05900
H73         H  0.50869904  0.23745801  0.18965423     0.05700
C74         C  0.46402896  0.22544882  0.86466486     0.02800
C75         C  0.46641702  0.22292880  0.90355191    -0.13400
C76         C  0.50320210  0.22354733  0.92141608     0.00300
C77         C  0.53793655  0.22540153  0.90012255    -0.11900
C78         C  0.53604169  0.22630918  0.86114943     0.02800
C79         C  0.49903917  0.22677398  0.84363462    -0.11300
H80         H  0.43961736  0.22106553  0.92004454     0.08300
H81         H  0.56637231  0.22685342  0.91387862     0.05900
H82         H  0.49753215  0.22852173  0.81356300     0.05700
C83         C  0.22903290  0.46408999  0.14186266     0.02800
C84         C  0.23080275  0.50106478  0.15954077    -0.13400
C85         C  0.22571256  0.53633869  0.13927268     0.00300
C86         C  0.22101928  0.53411022  0.10045522    -0.11900
C87         C  0.22092834  0.49742158  0.08217989     0.02800
C88         C  0.22477352  0.46252280  0.10305371    -0.11300
H89         H  0.23606352  0.50226788  0.18921574     0.08300
H90         H  0.21752915  0.56096295  0.08427777     0.05900
H91         H  0.22528879  0.43417467  0.08900909     0.05700
C92         C  0.21951078  0.45513631  0.86303580     0.02800
C93         C  0.21918604  0.45585344  0.90207536    -0.13400
C94         C  0.21889854  0.49204626  0.92119768     0.00300
C95         C  0.21825631  0.52760717  0.90088900    -0.11900
C96         C  0.21925580  0.52709997  0.86187485     0.02800
C97         C  0.21919850  0.49078865  0.84314991    -0.11300
H98         H  0.22058129  0.42832629  0.91752921     0.08300
H99         H  0.21827112  0.55566171  0.91545524     0.05900
H100        H  0.21990982  0.49026700  0.81300360     0.05700
C101        C  0.97388159  0.28018106  0.36237891     0.02800
C102        C  0.97258359  0.28177967  0.40137017    -0.13400
C103        C  0.00752754  0.28093975  0.42226029     0.00300
C104        C  0.04407091  0.27842556  0.40397977    -0.11900
C105        C  0.04578069  0.27573233  0.36510630     0.02800
C106        C  0.01067511  0.27717609  0.34440602    -0.11300
H107        H  0.94431450  0.28290913  0.41557908     0.08300
H108        H  0.07110646  0.27720167  0.42007527     0.05900
H109        H  0.01199732  0.27550313  0.31432515     0.05700
C110        C  0.96606502  0.27683146  0.64097438     0.02800
C111        C  0.96612091  0.28255718  0.60235460    -0.13400
C112        C  0.00185183  0.28566427  0.58277530     0.00300
C113        C  0.03763611  0.28343368  0.60224420    -0.11900
C114        C  0.03815756  0.27495886  0.64055151     0.02800
C115        C  0.00202538  0.27201005  0.65974011    -0.11300
H116        H  0.93833111  0.28412350  0.58747051     0.08300
H117        H  0.06513711  0.28686239  0.58714558     0.05900
H118        H  0.00169183  0.26564697  0.68928454     0.05700
C119        C  0.28536040  0.96444989  0.36171231     0.02800
C120        C  0.28911189  0.96187590  0.40045621    -0.13400
C121        C  0.29464812  0.99597770  0.42191812     0.00300
C122        C  0.29684349  0.03297804  0.40427077    -0.11900
C123        C  0.29240021  0.03627917  0.36548667     0.02800
C124        C  0.28577415  0.00174825  0.34453929    -0.11300
H125        H  0.28716002  0.93326347  0.41401432     0.08300
H126        H  0.30085844  0.05932540  0.42096215     0.05900
H127        H  0.28072042  0.00378224  0.31486644     0.05700
C128        C  0.27426978  0.95529045  0.64020595     0.02800
C129        C  0.27345203  0.99115646  0.65966234    -0.13400
C130        C  0.27956226  0.02716244  0.64105427     0.00300
C131        C  0.28536353  0.02693464  0.60230175    -0.11900
C132        C  0.28493782  0.99126711  0.58241039     0.02800
C133        C  0.28048235  0.95542244  0.60166187    -0.11300
H134        H  0.26751894  0.99096109  0.68929267     0.08300
H135        H  0.28905587  0.05460389  0.58741864     0.05900
H136        H  0.28067651  0.92772107  0.58650423     0.05700
O137        O  0.22771597  0.27561549  0.79962550    -0.72100
O138        O  0.24081834  0.17658727  0.75132934    -0.72400
O139        O  0.28236857  0.21856825  0.80158433    -0.72200
O140        O  0.18594732  0.23508048  0.74956870    -0.72200
O141        O  0.21818005  0.26526733  0.70548820    -0.72200
O142        O  0.31465427  0.24536557  0.75561741    -0.72200
O143        O  0.27080388  0.20595781  0.70540474    -0.72200
O144        O  0.26150123  0.30434905  0.75587249    -0.72300
V145        V  0.23481375  0.22686932  0.77457683     1.35200
V146        V  0.26569955  0.25462275  0.73147171     1.35200
C147        C  0.24286302  0.30675737  0.78635126     0.77100
C148        C  0.25761477  0.17451051  0.71993348     0.77100
C149        C  0.31480889  0.22961737  0.78748803     0.77000
C150        C  0.18568364  0.25392310  0.71912715     0.77000
O151        O  0.26956047  0.31673234  0.25471281    -0.72100
O152        O  0.28521723  0.21939469  0.30552653    -0.72400
O153        O  0.32670838  0.26190548  0.25532450    -0.72200
O154        O  0.22813475  0.27439929  0.30452963    -0.72200
O155        O  0.19910752  0.24215449  0.26017446    -0.72200
O156        O  0.29718075  0.23159535  0.20985611    -0.72200
O157        O  0.25746442  0.18791567  0.25982328    -0.72200
O158        O  0.23932525  0.28577435  0.21026922    -0.72300
V159        V  0.27686512  0.26744269  0.27916767     1.35200
V160        V  0.24879804  0.23742261  0.23594483     1.35200
C161        C  0.25217126  0.31789833  0.22365658     0.77100
C162        C  0.27399019  0.18713701  0.29131593     0.77100
C163        C  0.32846201  0.24515763  0.22397272     0.77000
C164        C  0.19672569  0.26073163  0.29059993     0.77000
O165        O  0.77932841  0.28910381  0.20593554    -0.72100
O166        O  0.76575160  0.18953084  0.25343464    -0.72400
O167        O  0.72321533  0.23340765  0.20587419    -0.72200
O168        O  0.82245883  0.24537123  0.25349157    -0.72200
O169        O  0.79363308  0.27395961  0.30024942    -0.72200
O170        O  0.69441861  0.26279364  0.25223053    -0.72200
O171        O  0.73652693  0.21855623  0.29970690    -0.72200
O172        O  0.75086906  0.31796480  0.25261204    -0.72300
V173        V  0.77222558  0.23988485  0.23064093     1.35200
V174        V  0.74451743  0.26773580  0.27536362     1.35200
C175        C  0.76653086  0.32054456  0.22078929     0.77100
C176        C  0.74828180  0.18695158  0.28447365     0.77100
C177        C  0.69198459  0.24682883  0.22055453     0.77000
C178        C  0.82503711  0.26142663  0.28511874     0.77000
C179        C  0.77337941  0.46625019  0.13547302     0.02800
C180        C  0.77409735  0.50261637  0.15424885    -0.13400
C181        C  0.77189194  0.53828502  0.13458891     0.00300
C182        C  0.77058194  0.53786738  0.09569603    -0.11900
C183        C  0.76952285  0.50179539  0.07649973     0.02800
C184        C  0.77046229  0.46606690  0.09649612    -0.11300
H185        H  0.77562948  0.50327589  0.18435745     0.08300
H186        H  0.76894700  0.56552648  0.08046304     0.05900
H187        H  0.76874913  0.43823366  0.08168676     0.05700
C188        C  0.75750561  0.53769463  0.85828311     0.02800
C189        C  0.76313391  0.53704370  0.89693895    -0.13400
C190        C  0.76563093  0.50101935  0.91610111     0.00300
C191        C  0.76353047  0.46544490  0.89634894    -0.11900
C192        C  0.75794889  0.46555341  0.85770411     0.02800
C193        C  0.75520275  0.50180923  0.83877438    -0.11300
H194        H  0.76514375  0.56457576  0.91222096     0.08300
H195        H  0.76627518  0.43762353  0.91115814     0.05900
H196        H  0.75068250  0.50209532  0.80893873     0.05700
C197        C  0.71371006  0.96564731  0.35639085     0.02800
C198        C  0.71099984  0.96532247  0.39532361    -0.13400
C199        C  0.71033775  0.00091024  0.41536751     0.00300
C200        C  0.71269694  0.03698237  0.39615414    -0.11900
C201        C  0.71428189  0.03775452  0.35715114     0.02800
C202        C  0.71406090  0.00194918  0.33743568    -0.11300
H203        H  0.71089041  0.93735335  0.41013382     0.08300
H204        H  0.71478493  0.06437897  0.41165098     0.05900
H205        H  0.71579216  0.00230766  0.30732979     0.05700
C206        C  0.73016216  0.03832046  0.63369105     0.02800
C207        C  0.73160589  0.00239603  0.65318874    -0.13400
C208        C  0.72897629  0.96630936  0.63423659     0.00300
C209        C  0.72415990  0.96620063  0.59555072    -0.11900
C210        C  0.72304599  0.00190018  0.57562863     0.02800
C211        C  0.72513713  0.03789166  0.59492051    -0.11300
H212        H  0.73530209  0.00246208  0.68312960     0.08300
H213        H  0.72206768  0.93829391  0.58085661     0.05900
H214        H  0.72362339  0.06552952  0.57967381     0.05700
O215        O  0.76860280  0.28502854  0.79504912    -0.72100
O216        O  0.75630264  0.18686641  0.74516242    -0.72400
O217        O  0.81284881  0.24234142  0.74714225    -0.72200
O218        O  0.71267982  0.22937358  0.79291563    -0.72200
O219        O  0.68483838  0.25999375  0.74682864    -0.72200
O220        O  0.78517388  0.27269219  0.70068185    -0.72200
O221        O  0.72876502  0.21743801  0.69864978    -0.72200
O222        O  0.74144666  0.31535918  0.74819906    -0.72300
V223        V  0.76214806  0.23652391  0.76915001     1.35200
V224        V  0.73555358  0.26575341  0.72450313     1.35200
C225        C  0.75668071  0.31674137  0.78015257     0.77100
C226        C  0.74060996  0.18565128  0.71334005     0.77100
C227        C  0.81602456  0.25912074  0.71584246     0.77000
C228        C  0.68169272  0.24289258  0.77801008     0.77000
O229        O  0.78043801  0.72955919  0.29554290    -0.72100
O230        O  0.68322592  0.74139813  0.24418569    -0.72400
O231        O  0.74041459  0.68655860  0.24543819    -0.72200
O232        O  0.72275718  0.78434501  0.29422896    -0.72200
O233        O  0.75237212  0.81522935  0.24913831    -0.72200
O234        O  0.77195035  0.71705079  0.20117805    -0.72200
O235        O  0.71391353  0.77136521  0.19910224    -0.72200
O236        O  0.81047735  0.76140775  0.25119846    -0.72300
V237        V  0.73234931  0.73602174  0.26899596     1.35200
V238        V  0.76161967  0.76560115  0.22600494     1.35200
C239        C  0.81190948  0.74414109  0.28233170     0.77100
C240        C  0.68198927  0.75889680  0.21310819     0.77100
C241        C  0.75921117  0.68508674  0.21505822     0.77000
C242        C  0.73395110  0.81655881  0.27978169     0.77000
O243        O  0.68054441  0.74320431  0.74830503    -0.72100
O244        O  0.78013714  0.73253912  0.70121470    -0.72400
O245        O  0.73780605  0.68851941  0.74867539    -0.72200
O246        O  0.72293131  0.78745425  0.70074642    -0.72200
O247        O  0.75325604  0.81683270  0.74614740    -0.72200
O248        O  0.76298261  0.71866483  0.79648504    -0.72200
O249        O  0.80838011  0.75995729  0.74867864    -0.72200
O250        O  0.70794791  0.77517603  0.79376174    -0.72300
V251        V  0.73087511  0.73855759  0.72561438     1.35200
V252        V  0.75765155  0.76714230  0.77034973     1.35200
C253        C  0.67728522  0.76039966  0.77932228     0.77100
C254        C  0.81140417  0.74405786  0.71700616     0.77100
C255        C  0.75216310  0.68696719  0.78103148     0.77000
C256        C  0.73597703  0.81895295  0.71508570     0.77000
C257        C  0.73382876  0.07615951  0.65411521    -0.06500
C258        C  0.70869730  0.08298861  0.68465142    -0.17600
C259        C  0.71005167  0.11859362  0.70436965     0.10700
C260        C  0.73696845  0.14817166  0.69329662    -0.06400
C261        C  0.76214713  0.14152335  0.66297193    -0.11300
C262        C  0.76156808  0.10556640  0.64383189     0.10700
S263        S  0.67648891  0.12469935  0.74303133    -0.32600
S264        S  0.79854139  0.09833091  0.60821454    -0.32600
H265        H  0.80355721  0.05758570  0.61477045     0.28700
H266        H  0.67144984  0.16574680  0.73891250     0.28700
H267        H  0.68741671  0.06063830  0.69284805     0.19300
H268        H  0.78337144  0.16402899  0.65496976     0.19300
C269        C  0.73249789  0.85718559  0.69553044    -0.06500
C270        C  0.76445766  0.88357771  0.69736207    -0.17600
C271        C  0.76456652  0.91879340  0.67694671     0.10700
C272        C  0.73147649  0.92859500  0.65486708    -0.06400
C273        C  0.69934835  0.90244156  0.65327351    -0.17700
C274        C  0.69928781  0.86714686  0.67362709     0.10700
S275        S  0.80852099  0.94895590  0.67900318    -0.32600
S276        S  0.65520808  0.83723537  0.67190222    -0.32600
H277        H  0.65653114  0.82594331  0.70957778     0.28700
H278        H  0.80609468  0.96319160  0.64229451     0.28700
H279        H  0.79025585  0.87600995  0.71372739     0.19300
H280        H  0.67366223  0.91011267  0.63680083     0.19300
C281        C  0.71870673  0.92800401  0.33586110    -0.06500
C282        C  0.69033336  0.89811400  0.34049135    -0.17600
C283        C  0.69398152  0.86162426  0.32217220     0.10700
C284        C  0.72687153  0.85487754  0.29857489    -0.06400
C285        C  0.75467181  0.88519389  0.29336524    -0.17700
C286        C  0.75144601  0.92116263  0.31218960     0.10700
S287        S  0.65543728  0.82502395  0.32782704    -0.32600
S288        S  0.79136709  0.95603303  0.30628775    -0.32600
H289        H  0.79067028  0.96998249  0.34312069     0.28700
H290        H  0.63338452  0.84535729  0.35497261     0.28700
H291        H  0.66508670  0.90365735  0.35831925     0.19300
H292        H  0.78013422  0.88027580  0.27559723     0.19300
C293        C  0.71165071  0.00028135  0.45649885    -0.06500
C294        C  0.74314941  0.98039583  0.47365258    -0.17600
C295        C  0.74813019  0.98129376  0.51219975     0.10700
C296        C  0.72034124  0.00162162  0.53456020    -0.06400
C297        C  0.68878871  0.02151061  0.51745195    -0.17700
C298        C  0.68397126  0.02085000  0.47879652     0.10700
S299        S  0.79167138  0.95764605  0.53079682    -0.32600
S300        S  0.64133947  0.04580875  0.45990315    -0.32600
H301        H  0.63667338  0.02069259  0.42908741     0.28700
H302        H  0.79735137  0.98476096  0.55994047     0.28700
H303        H  0.76493540  0.96523010  0.45670626     0.19300
H304        H  0.66725297  0.03697441  0.53443589     0.19300
C305        C  0.75596460  0.42770905  0.83709067    -0.06500
C306        C  0.78145518  0.42204119  0.80661572    -0.17600
C307        C  0.78299556  0.38579301  0.78793140     0.10700
C308        C  0.75880963  0.35437410  0.80012056    -0.06400
C309        C  0.73309672  0.35997915  0.83021479    -0.17700
C310        C  0.73066950  0.39648931  0.84822854     0.10700
S311        S  0.81667852  0.38126796  0.74916499    -0.32600
S312        S  0.69306013  0.40188391  0.88356549    -0.32600
H313        H  0.68574758  0.44221771  0.87670141     0.28700
H314        H  0.82419081  0.34062223  0.75360129     0.28700
H315        H  0.80093324  0.44574514  0.79781120     0.19300
H316        H  0.71353497  0.33619290  0.83871829     0.19300
C317        C  0.75480573  0.57586947  0.83815039    -0.06500
C318        C  0.78019748  0.58243639  0.80774707    -0.17600
C319        C  0.78053701  0.61871442  0.78896979     0.10700
C320        C  0.75500248  0.64917874  0.80079858    -0.06400
C321        C  0.72963235  0.64281930  0.83103687    -0.17700
C322        C  0.72859103  0.60631883  0.84931236     0.10700
S323        S  0.81464034  0.62462387  0.75068866    -0.32600
S324        S  0.69159584  0.59996112  0.88507644    -0.32600
H325        H  0.68507603  0.55953141  0.87818957     0.28700
H326        H  0.82103027  0.66536299  0.75567856     0.28700
H327        H  0.80051066  0.55940388  0.79905091     0.19300
H328        H  0.70938563  0.66601116  0.83955485     0.19300
C329        C  0.76442103  0.64698068  0.19567059    -0.06500
C330        C  0.73281391  0.62010226  0.19631100    -0.17600
C331        C  0.73429524  0.58488052  0.17611599     0.10700
C332        C  0.76837272  0.57585974  0.15501643    -0.06400
C333        C  0.80029277  0.60229242  0.15474038    -0.17700
C334        C  0.79895845  0.63741034  0.17533381     0.10700
S335        S  0.69145190  0.55308032  0.17795731    -0.32600
S336        S  0.84298629  0.66741514  0.17634045    -0.32600
H337        H  0.83863528  0.67894567  0.21373391     0.28700
H338        H  0.69538599  0.53773286  0.14181488     0.28700
H339        H  0.70618111  0.62713402  0.21178563     0.19300
H340        H  0.82682790  0.59493170  0.13926003     0.19300
C341        C  0.76760850  0.50162517  0.03545963    -0.06500
C342        C  0.79858991  0.51934118  0.01544951    -0.17600
C343        C  0.79938554  0.51865143  0.97656926     0.10700
C344        C  0.76815004  0.50040523  0.95707801    -0.06400
C345        C  0.73718949  0.48264365  0.97707526    -0.17700
C346        C  0.73629952  0.48348204  0.01593630     0.10700
S347        S  0.84157390  0.54045439  0.95360590    -0.32600
S348        S  0.69361724  0.46248410  0.03877052    -0.32600
H349        H  0.69339965  0.48890028  0.06895868     0.28700
H350        H  0.84147741  0.51486403  0.92280274     0.28700
H351        H  0.82282005  0.53304892  0.03030223     0.19300
H352        H  0.71285819  0.46910687  0.96221423     0.19300
C353        C  0.76922559  0.35893516  0.20071924    -0.06500
C354        C  0.79551133  0.36194893  0.17044716    -0.17600
C355        C  0.79841096  0.39663611  0.14928570     0.10700
C356        C  0.77311049  0.42887803  0.15721794    -0.06400
C357        C  0.74664379  0.42580200  0.18720223    -0.17700
C358        C  0.74505904  0.39195410  0.20945113     0.10700
S359        S  0.83614852  0.39815998  0.11376793    -0.32600
S360        S  0.71077092  0.39309435  0.24781919    -0.32600
H361        H  0.74074967  0.38819778  0.27451023     0.28700
H362        H  0.84493939  0.43854437  0.11819981     0.28700
H363        H  0.81469720  0.33731386  0.16358227     0.19300
H364        H  0.72695187  0.45022086  0.19352500     0.19300
C365        C  0.72087710  0.07557984  0.33718556    -0.06500
C366        C  0.75370064  0.07840715  0.31334952    -0.17600
C367        C  0.76352811  0.11404917  0.29559599     0.10700
C368        C  0.74019479  0.14811826  0.30222810    -0.06400
C369        C  0.70725790  0.14510868  0.32602664    -0.17700
C370        C  0.69696378  0.10928034  0.34293653     0.10700
S371        S  0.80691052  0.11552989  0.26614576    -0.32600
S372        S  0.65220257  0.10835265  0.37033080    -0.32600
H373        H  0.64279061  0.06862507  0.36288305     0.28700
H374        H  0.81746765  0.07541634  0.26944612     0.28700
H375        H  0.77227455  0.05264987  0.30937950     0.19300
H376        H  0.68859669  0.17070085  0.33075764     0.19300
C377        C  0.27600038  0.06517458  0.66143950    -0.06500
C378        C  0.25093062  0.09431686  0.64677438    -0.17600
C379        C  0.24391424  0.12959694  0.66573313     0.10700
C380        C  0.26182103  0.13633478  0.70049153    -0.06400
C381        C  0.28621903  0.10698284  0.71570621    -0.17700
C382        C  0.29463476  0.07219346  0.69606906     0.10700
S383        S  0.21008660  0.16396278  0.64504663    -0.32600
S384        S  0.33128860  0.03946230  0.71558836    -0.32600
H385        H  0.34585298  0.02598688  0.68117638     0.28700
H386        H  0.19209507  0.17384124  0.67911549     0.28700
H387        H  0.23571825  0.08914781  0.62070718     0.19300
H388        H  0.30000925  0.11169369  0.74248841     0.19300
C389        C  0.29127545  0.07599580  0.34741410    -0.06500
C390        C  0.26862875  0.10610049  0.36412551    -0.17600
C391        C  0.26310235  0.14271427  0.34670411     0.10700
C392        C  0.27961450  0.14943874  0.31120406    -0.06400
C393        C  0.30263066  0.11981633  0.29461297    -0.17700
C394        C  0.31004482  0.08398257  0.31292369     0.10700
S395        S  0.23321893  0.17899016  0.37047298    -0.32600
S396        S  0.34563237  0.05106949  0.29184626    -0.32600
H397        H  0.35945253  0.03515570  0.32558775     0.28700
H398        H  0.21449456  0.19327634  0.33829663     0.28700
H399        H  0.25392114  0.10071473  0.39044986     0.19300
H400        H  0.31591993  0.12509346  0.26765539     0.19300
C401        C  0.29432805  0.99319138  0.46303312    -0.06500
C402        C  0.26099838  0.97644806  0.48023722    -0.17600
C403        C  0.25695772  0.97595807  0.51891563     0.10700
C404        C  0.28738739  0.99172282  0.54131589    -0.06400
C405        C  0.32091009  0.00819191  0.52418726    -0.17700
C406        C  0.32490498  0.00873098  0.48539735     0.10700
S407        S  0.21136419  0.95662421  0.53773764    -0.32600
S408        S  0.37014005  0.02847639  0.46629146    -0.32600
H409        H  0.37077815  0.00413455  0.43460096     0.28700
H410        H  0.20913917  0.98307543  0.56783383     0.28700
H411        H  0.23715619  0.96497616  0.46329852     0.19300
H412        H  0.34446927  0.02006949  0.54121766     0.19300
C413        C  0.14848012  0.26171900  0.69931944    -0.06500
C414        C  0.14456538  0.24709836  0.66319768    -0.17600
C415        C  0.10837189  0.24804033  0.64475784     0.10700
C416        C  0.07623778  0.26912634  0.66057298    -0.06400
C417        C  0.08097066  0.28579267  0.69620161    -0.17700
C418        C  0.11635761  0.28157549  0.71596450     0.10700
S419        S  0.10461689  0.21809051  0.60337561    -0.32600
S420        S  0.11931841  0.30361318  0.76150353    -0.32600
H421        H  0.15945659  0.31398333  0.75876688     0.28700
H422        H  0.06516798  0.20669148  0.60974961     0.28700
H423        H  0.16939389  0.23296654  0.64989624     0.19300
H424        H  0.05711899  0.30257846  0.70870608     0.19300
C425        C  0.92828366  0.27375060  0.66148313    -0.06500
C426        C  0.92015007  0.23870457  0.68098462    -0.17600
C427        C  0.88369976  0.23285449  0.69854376     0.10700
C428        C  0.85477284  0.26306217  0.69731700    -0.06400
C429        C  0.86307842  0.29824763  0.67805711    -0.17700
C430        C  0.89959968  0.30414755  0.66063424     0.10700
S431        S  0.87518842  0.18528485  0.71987588    -0.32600
S432        S  0.90816768  0.35153750  0.63889147    -0.32600
H433        H  0.94908475  0.35252887  0.64568797     0.28700
H434        H  0.83591908  0.18196299  0.70748897     0.28700
H435        H  0.94186831  0.21510707  0.68137690     0.19300
H436        H  0.84127215  0.32175082  0.67731585     0.19300
C437        C  0.15814202  0.26563862  0.30953290    -0.06500
C438        C  0.12939247  0.23606426  0.30497242    -0.17600
C439        C  0.09293315  0.23811030  0.32331678     0.10700
C440        C  0.08439047  0.27093475  0.34627547    -0.06400
C441        C  0.11305598  0.30043448  0.35097111    -0.17700
C442        C  0.14947528  0.29847105  0.33256801     0.10700
S443        S  0.05930632  0.19718313  0.31733330    -0.32600
S444        S  0.18242249  0.33994331  0.33807545    -0.32600
H445        H  0.19306435  0.34164494  0.30022602     0.28700
H446        H  0.04266911  0.19914121  0.35317393     0.28700
H447        H  0.13575035  0.21053196  0.28775372     0.19300
H448        H  0.10650230  0.32586001  0.36827507     0.19300
C449        C  0.86374640  0.26607841  0.30390967    -0.06500
C450        C  0.86909466  0.29846561  0.32783928    -0.17600
C451        C  0.90517289  0.30504284  0.34579416     0.10700
C452        C  0.93668775  0.27804753  0.34069173    -0.06400
C453        C  0.93161693  0.24609784  0.31629606    -0.17700
C454        C  0.89566473  0.23962671  0.29821012     0.10700
S455        S  0.90937461  0.34913864  0.37373126    -0.32600
S456        S  0.89179810  0.19543281  0.27055739    -0.32600
H457        H  0.85461264  0.18518637  0.28520884     0.28700
H458        H  0.95005770  0.35469979  0.36747042     0.28700
H459        H  0.84521387  0.31940408  0.33200719     0.19300
H460        H  0.95534698  0.22487592  0.31259524     0.19300
C461        C  0.00585511  0.28172659  0.46333076    -0.06500
C462        C  0.02462249  0.31278420  0.48219011    -0.17600
C463        C  0.02263503  0.31583913  0.52097775     0.10700
C464        C  0.00189302  0.28683363  0.54160308    -0.06400
C465        C  0.98307237  0.25585288  0.52263722    -0.17700
C466        C  0.98523797  0.25268582  0.48394780     0.10700
S467        S  0.04617577  0.35796686  0.54223921    -0.32600
S468        S  0.96278666  0.20984064  0.46283457    -0.32600
H469        H  0.99065726  0.20601908  0.43395534     0.28700
H470        H  0.02003844  0.36064330  0.57261596     0.28700
H471        H  0.04027661  0.33527627  0.46647565     0.19300
H472        H  0.96784006  0.23299720  0.53825991     0.19300
C473        C  0.23784390  0.34494093  0.80591898    -0.06500
C474        C  0.20358873  0.35056834  0.82755341    -0.17600
C475        C  0.19623396  0.38640790  0.84571387     0.10700
C476        C  0.22400768  0.41738899  0.84281309    -0.06400
C477        C  0.25817961  0.41191657  0.82121785    -0.17700
C478        C  0.26570968  0.37601726  0.80328272     0.10700
S479        S  0.15046591  0.39101824  0.87122968    -0.32600
S480        S  0.31254087  0.37111994  0.77969879    -0.32600
H481        H  0.31992174  0.33264322  0.79304570     0.28700
H482        H  0.14586355  0.43194676  0.86564508     0.28700
H483        H  0.18184961  0.32713120  0.82973064     0.19300
H484        H  0.27991375  0.43541710  0.81942450     0.19300
C485        C  0.23338752  0.42714563  0.16388601    -0.06500
C486        C  0.26705468  0.42252442  0.18618454    -0.17600
C487        C  0.27418539  0.38736498  0.20567675     0.10700
C488        C  0.24676133  0.35578591  0.20339239    -0.06400
C489        C  0.21282032  0.36065531  0.18140001    -0.17700
C490        C  0.20550613  0.39603638  0.16227116     0.10700
S491        S  0.31985886  0.38433985  0.23126630    -0.32600
S492        S  0.15922388  0.40016610  0.13776062    -0.32600
H493        H  0.15455676  0.44107828  0.14342538     0.28700
H494        H  0.32844675  0.34536608  0.22036670     0.28700
H495        H  0.28869802  0.44611940  0.18748628     0.19300
H496        H  0.19118569  0.33707131  0.17989351     0.19300
C497        C  0.21923484  0.49588018  0.04099502    -0.06500
C498        C  0.24951658  0.51445009  0.02071296    -0.17600
C499        C  0.25084460  0.51259375  0.98185455     0.10700
C500        C  0.22053591  0.49266654  0.96239858    -0.06400
C501        C  0.19046994  0.47370220  0.98266100    -0.17700
C502        C  0.18931062  0.47531836  0.02159629     0.10700
S503        S  0.29291082  0.53476784  0.95895850    -0.32600
S504        S  0.14813333  0.45180715  0.04464230    -0.32600
H505        H  0.14627008  0.47830393  0.07470674     0.28700
H506        H  0.29466879  0.50749555  0.92948607     0.28700
H507        H  0.27298544  0.52962801  0.03538864     0.19300
H508        H  0.16710599  0.45840157  0.96795546     0.19300
C509        C  0.35193280  0.22575790  0.80822848    -0.06500
C510        C  0.35821777  0.25164334  0.83801491    -0.17600
C511        C  0.39465796  0.25304836  0.85626063     0.10700
C512        C  0.42510045  0.22648769  0.84575897    -0.06400
C513        C  0.41838739  0.20015352  0.81624296    -0.17700
C514        C  0.38242167  0.19976471  0.79715655     0.10700
S515        S  0.40110931  0.29138065  0.89059759    -0.32600
S516        S  0.37770115  0.16546011  0.75903510    -0.32600
H517        H  0.33641088  0.16585904  0.75729544     0.28700
H518        H  0.44113225  0.29854907  0.88228228     0.28700
H519        H  0.33518757  0.27237191  0.84586844     0.19300
H520        H  0.44140472  0.17962028  0.80797830     0.19300
C521        C  0.57262933  0.22878958  0.83861300    -0.06500
C522        C  0.57734130  0.26103948  0.81437325    -0.17600
C523        C  0.61194447  0.26596185  0.79348675     0.10700
C524        C  0.64308972  0.23826529  0.79705726    -0.06400
C525        C  0.63813997  0.20586393  0.82117928    -0.17700
C526        C  0.60325394  0.20052614  0.84148998     0.10700
S527        S  0.61563744  0.30973046  0.76513665    -0.32600
S528        S  0.59952416  0.15662236  0.86988121    -0.32600
H529        H  0.55847600  0.15185220  0.86574908     0.28700
H530        H  0.61704074  0.28797085  0.73181884     0.28700
H531        H  0.55411110  0.28303164  0.81223659     0.19300
H532        H  0.66153471  0.18413300  0.82395662     0.19300
C533        C  0.43571931  0.24006864  0.16125588    -0.06500
C534        C  0.42598665  0.20893930  0.18544023    -0.17600
C535        C  0.39158208  0.21018591  0.20697744     0.10700
C536        C  0.36584789  0.24279582  0.20358534    -0.06400
C537        C  0.37530186  0.27372587  0.17918392    -0.17700
C538        C  0.41034574  0.27314083  0.15857360     0.10700
S539        S  0.38204545  0.16909522  0.23767532    -0.32600
S540        S  0.42153092  0.31599944  0.13054688    -0.32600
H541        H  0.46274377  0.31414640  0.13528207     0.28700
H542        H  0.36157977  0.19075654  0.26492194     0.28700
H543        H  0.44554971  0.18363717  0.18775214     0.19300
H544        H  0.35548048  0.29875416  0.17651432     0.19300
C545        C  0.58218526  0.23628961  0.16130205    -0.06500
C546        C  0.58811983  0.26813170  0.18560661    -0.17600
C547        C  0.62347156  0.27246133  0.20509624     0.10700
C548        C  0.65379100  0.24394988  0.20081977    -0.06400
C549        C  0.64763378  0.21183677  0.17672694    -0.17700
C550        C  0.61206774  0.20740242  0.15739062     0.10700
S551        S  0.62879672  0.31644513  0.23282380    -0.32600
S552        S  0.60613909  0.16356311  0.12940282    -0.32600
H553        H  0.56513143  0.15994556  0.13500697     0.28700
H554        H  0.66682541  0.32470883  0.21898271     0.28700
H555        H  0.56541360  0.29058351  0.18851336     0.19300
H556        H  0.67038609  0.18949725  0.17352803     0.19300
C557        C  0.50883108  0.23362349  0.04040630    -0.06500
C558        C  0.52702941  0.20140483  0.02264413    -0.17600
C559        C  0.52507265  0.19679921  0.98400833     0.10700
C560        C  0.50499522  0.22537846  0.96242477    -0.06400
C561        C  0.48717651  0.25776570  0.98014224    -0.17700
C562        C  0.48931539  0.26249885  0.01866761     0.10700
S563        S  0.54735672  0.15310694  0.96425438    -0.32600
S564        S  0.46798522  0.30685049  0.03802165    -0.32600
H565        H  0.49529741  0.31047013  0.06724194     0.28700
H566        H  0.52071778  0.14937378  0.93451170     0.28700
H567        H  0.54180382  0.17899059  0.03914390     0.19300
H568        H  0.47233606  0.28014991  0.96364552     0.19300
C569        C  0.26858442  0.91756109  0.66023065    -0.06500
C570        C  0.29946724  0.88988265  0.65987227    -0.17600
C571        C  0.29673323  0.85454811  0.67997247     0.10700
C572        C  0.26191855  0.84608809  0.70031984    -0.06400
C573        C  0.23128782  0.87411028  0.70113190    -0.17700
C574        C  0.23396286  0.90938357  0.68091826     0.10700
S575        S  0.33944206  0.82258916  0.68007541    -0.32600
S576        S  0.19154557  0.94179148  0.68136245    -0.32600
H577        H  0.19680598  0.95631242  0.64500208     0.28700
H578        H  0.33527792  0.81098359  0.71749827     0.28700
H579        H  0.32638028  0.89637741  0.64460530     0.19300
H580        H  0.20439479  0.86784449  0.71647790     0.19300
C581        C  0.22533176  0.63613855  0.80015049    -0.06500
C582        C  0.25499460  0.60741716  0.79590756    -0.17600
C583        C  0.25409009  0.57207291  0.81610518     0.10700
C584        C  0.22223802  0.56449399  0.84063665    -0.06400
C585        C  0.19210160  0.59275246  0.84434551    -0.17700
C586        C  0.19298495  0.62813314  0.82404363     0.10700
S587        S  0.29552093  0.53887736  0.81061173    -0.32600
S588        S  0.15109356  0.66079815  0.82856782    -0.32600
H589        H  0.15070998  0.67206482  0.79085812     0.28700
H590        H  0.29566597  0.52533916  0.84762450     0.28700
H591        H  0.28007722  0.61324115  0.77789345     0.19300
H592        H  0.16722645  0.58677025  0.86256762     0.19300
C593        C  0.06817163  0.72542099  0.65650051    -0.06500
C594        C  0.07401292  0.75710026  0.68098136    -0.17600
C595        C  0.10975944  0.76197125  0.69967084     0.10700
C596        C  0.14030912  0.73380682  0.69477299    -0.06400
C597        C  0.13448515  0.70220557  0.67004878    -0.17700
C598        C  0.09873971  0.69753264  0.65112372     0.10700
S599        S  0.11511006  0.80609966  0.72731717    -0.32600
S600        S  0.09361766  0.65475592  0.62156917    -0.32600
H601        H  0.05276628  0.64986209  0.62727918     0.28700
H602        H  0.15371044  0.81406030  0.71473807     0.28700
H603        H  0.05092432  0.77904724  0.68457475     0.19300
H604        H  0.15757953  0.68035132  0.66613141     0.19300
C605        C  0.92123731  0.72786186  0.65805511    -0.06500
C606        C  0.91837746  0.75681774  0.68589465    -0.17600
C607        C  0.88370479  0.76195607  0.70650041     0.10700
C608        C  0.85018195  0.73847259  0.69847435    -0.06400
C609        C  0.85324031  0.70924488  0.67079409    -0.17700
C610        C  0.88841241  0.70316012  0.65112223     0.10700
S611        S  0.88387011  0.80029050  0.74119497    -0.32600
S612        S  0.88967310  0.66254531  0.61863040    -0.32600
H613        H  0.92981361  0.65337474  0.62403999     0.28700
H614        H  0.87837534  0.77327715  0.77060206     0.28700
H615        H  0.94335461  0.77599666  0.69141260     0.19300
H616        H  0.82817178  0.69036294  0.66480343     0.19300
C617        C  0.92305195  0.73105372  0.33806402    -0.06500
C618        C  0.91376589  0.76679338  0.32033834    -0.17600
C619        C  0.87720982  0.77230754  0.30315749     0.10700
C620        C  0.84958459  0.74094414  0.30256643    -0.06400
C621        C  0.85882277  0.70520060  0.32048937    -0.17700
C622        C  0.89534135  0.69981860  0.33799487     0.10700
S623        S  0.86670665  0.82081899  0.28467034    -0.32600
S624        S  0.90509850  0.65227167  0.35896157    -0.32600
H625        H  0.94636940  0.65321900  0.35429371     0.28700
H626        H  0.82689088  0.82104453  0.29610135     0.28700
H627        H  0.93464857  0.79110669  0.32110583     0.19300
H628        H  0.83788370  0.68094345  0.32000280     0.19300
C629        C  0.99518561  0.72550991  0.45828695    -0.06500
C630        C  0.97588071  0.75624732  0.47724976    -0.17600
C631        C  0.97582257  0.75797319  0.51609209     0.10700
C632        C  0.99463608  0.72769247  0.53663987    -0.06400
C633        C  0.01392952  0.69695913  0.51763075    -0.17700
C634        C  0.01416015  0.69536300  0.47879648     0.10700
S635        S  0.95285471  0.80043808  0.53752126    -0.32600
S636        S  0.03807405  0.65352076  0.45720806    -0.32600
H637        H  0.01267900  0.65147985  0.42636044     0.28700
H638        H  0.97886473  0.80245532  0.56791325     0.28700
H639        H  0.96171669  0.77972270  0.46159663     0.19300
H640        H  0.02820783  0.67351611  0.53323798     0.19300
C641        C  0.41934047  0.75637411  0.84168681    -0.06500
C642        C  0.38965855  0.78440104  0.84852254    -0.17600
C643        C  0.35368109  0.78311725  0.82963094     0.10700
C644        C  0.34651373  0.75240134  0.80377968    -0.06400
C645        C  0.37631974  0.72433550  0.79698991    -0.17700
C646        C  0.41234612  0.72568657  0.81588763     0.10700
S647        S  0.31940973  0.82292244  0.83836220    -0.32600
S648        S  0.44735578  0.68651313  0.80685960    -0.32600
H649        H  0.46341216  0.68568541  0.84289516     0.28700
H650        H  0.31006998  0.82856412  0.80058645     0.28700
H651        H  0.39510305  0.80834175  0.86788419     0.19300
H652        H  0.37114580  0.70042839  0.77754507     0.19300
C653        C  0.63875746  0.76272616  0.79857483    -0.06500
C654        C  0.63090992  0.79551000  0.82140870    -0.17600
C655        C  0.59485630  0.79925467  0.84023482     0.10700
C656        C  0.56611705  0.76916561  0.83680576    -0.06400
C657        C  0.57372071  0.73672102  0.81363849    -0.17700
C658        C  0.60972947  0.73283817  0.79500454     0.10700
S659        S  0.58702624  0.84352544  0.86726848    -0.32600
S660        S  0.61761711  0.68756506  0.76956892    -0.32600
H661        H  0.65600118  0.68147669  0.78347870     0.28700
H662        H  0.54582813  0.84500368  0.86226318     0.28700
H663        H  0.65277666  0.81874625  0.82415335     0.19300
H664        H  0.55203132  0.71323879  0.81137109     0.19300
C665        C  0.57174331  0.77093102  0.15575864    -0.06500
C666        C  0.59982995  0.80122043  0.15331537    -0.17600
C667        C  0.63560751  0.79860873  0.17248221     0.10700
C668        C  0.64410048  0.76431105  0.19363741    -0.06400
C669        C  0.61591650  0.73394014  0.19588619    -0.17700
C670        C  0.57984402  0.73684259  0.17707118     0.10700
S671        S  0.66798584  0.84091958  0.17045086    -0.32600
S672        S  0.54501234  0.69632186  0.17906874    -0.32600
H673        H  0.56756257  0.67145663  0.20217630     0.28700
H674        H  0.67851627  0.83921191  0.20826676     0.28700
H675        H  0.59332072  0.82754679  0.13718705     0.19300
H676        H  0.62255435  0.70758902  0.21186755     0.19300
C677        C  0.49583022  0.77153180  0.95894352    -0.06500
C678        C  0.51513658  0.74166838  0.97898685    -0.17600
C679        C  0.51491621  0.74151000  0.01784571     0.10700
C680        C  0.49606897  0.77268529  0.03723310    -0.06400
C681        C  0.47664678  0.80247179  0.01710656    -0.17700
C682        C  0.47650757  0.80236521  0.97825001     0.10700
S683        S  0.53746689  0.69973566  0.04085558    -0.32600
S684        S  0.45203747  0.84285982  0.95498349    -0.32600
H685        H  0.47721104  0.84371729  0.92379925     0.28700
H686        H  0.51121487  0.69908093  0.07125890     0.28700
H687        H  0.52939377  0.71761194  0.96420950     0.19300
H688        H  0.46225312  0.82650400  0.03179969     0.19300
C689        C  0.26309471  0.85626057  0.30223588    -0.06500
C690        C  0.29789284  0.86071024  0.32305129    -0.17600
C691        C  0.30673328  0.89622049  0.34109091     0.10700
C692        C  0.27965547  0.92801057  0.33950978    -0.06400
C693        C  0.24515652  0.92396215  0.31824319    -0.17700
C694        C  0.23643047  0.88848304  0.29988012     0.10700
S695        S  0.35369973  0.89951006  0.36458515    -0.32600
S696        S  0.18978724  0.88562641  0.27590295    -0.32600
H697        H  0.18107955  0.84700779  0.28811121     0.28700
H698        H  0.35919301  0.94023378  0.35828335     0.28700
H699        H  0.31900244  0.83661900  0.32449979     0.19300
H700        H  0.22409422  0.94811515  0.31712957     0.19300
C701        C  0.23673201  0.64928329  0.19460031    -0.06500
C702        C  0.21349621  0.61940249  0.21050482    -0.17600
C703        C  0.20754341  0.58330133  0.19229656     0.10700
C704        C  0.22733834  0.57557976  0.15823723    -0.06400
C705        C  0.25048792  0.60582523  0.14233535    -0.17700
C706        C  0.25504307  0.64252957  0.15983489     0.10700
S707        S  0.17223637  0.54978963  0.21295606    -0.32600
S708        S  0.28536533  0.67894202  0.13662571    -0.32600
H709        H  0.29928314  0.69729680  0.16894824     0.28700
H710        H  0.15834883  0.53465366  0.17898694     0.28700
H711        H  0.19857018  0.62482924  0.23670682     0.19300
H712        H  0.26598287  0.60058931  0.11639014     0.19300
C713        C  0.42508388  0.77738836  0.15904551    -0.06500
C714        C  0.42042036  0.74595545  0.18415102    -0.17600
C715        C  0.38491277  0.73995197  0.20313359     0.10700
C716        C  0.35304444  0.76649702  0.19756980    -0.06400
C717        C  0.35796542  0.79833073  0.17273826    -0.17700
C718        C  0.39365613  0.80431867  0.15380382     0.10700
S719        S  0.38206454  0.69657560  0.23229299    -0.32600
S720        S  0.39753325  0.84742509  0.12434574    -0.32600
H721        H  0.43836818  0.85301622  0.12936627     0.28700
H722        H  0.34498779  0.68447560  0.21889724     0.28700
H723        H  0.44426519  0.72488232  0.18793449     0.19300
H724        H  0.33405616  0.81920778  0.16850971     0.19300
C725        C  0.14307231  0.73789817  0.29982294    -0.06500
C726        C  0.11441370  0.76747386  0.29466829    -0.17600
C727        C  0.07866041  0.76685804  0.31425998     0.10700
C728        C  0.07053658  0.73528977  0.33893455    -0.06400
C729        C  0.09897543  0.70555392  0.34396537    -0.17700
C730        C  0.13485567  0.70626501  0.32453779     0.10700
S731        S  0.04566520  0.80828071  0.30789296    -0.32600
S732        S  0.16786482  0.66500773  0.33140872    -0.32600
H733        H  0.17916645  0.66251195  0.29381687     0.28700
H734        H  0.03083781  0.80830950  0.34447721     0.28700
H735        H  0.12051410  0.79219075  0.27628617     0.19300
H736        H  0.09273599  0.68102482  0.36254131     0.19300
loop_ 
_geom_bond_atom_site_label_1 
_geom_bond_atom_site_label_2 
_geom_bond_distance 
_geom_bond_site_symmetry_2 
_ccdc_geom_bond_type 
O1            V9   1.894       .  S
O1           C11   1.263       .  A
O2            V9   1.895       .  S
O2           C12   1.263       .  A
O3            V9   1.902       .  S
O3           C13   1.264       .  A
O4            V9   1.898       .  S
O4           C14   1.265       .  A
O5           V10   1.902       .  S
O5           C14   1.264       .  A
O6           V10   1.903       .  S
O6           C13   1.264       .  A
O7           V10   1.900       .  S
O7           C12   1.266       .  A
O8           V10   1.897       .  S
O8           C11   1.264       .  A
V9           V10   2.086       .  T
C11         C716   1.479       .  S
C12         C725   1.480       .  S
C13         C701   1.474       .  S
C14         C689   1.482       .  S
C15         C665   1.471       .  S
C15          C16   1.399       .  A
C15          C20   1.398       .  A
C16          C17   1.401       .  A
C16          H21   1.084       .  S
C17         C713   1.477       .  S
C17          C18   1.403       .  A
C18          C19   1.403       .  A
C18          H22   1.084       .  S
C19         C680   1.477       .  S
C19          C20   1.402       .  A
C20          H23   1.084       .  S
C24         C656   1.476       .  S
C24          C25   1.402       .  A
C24          C29   1.402       .  A
C25          C26   1.401       .  A
C25          H30   1.084       .  S
C26         C641   1.476       .  S
C26          C27   1.401       .  A
C27          C28   1.400       .  A
C27          H31   1.084       .  S
C28         C677   1.473       .  S
C28          C29   1.400       .  A
C29          H32   1.084       .  S
C33         C728   1.479       .  S
C33          C34   1.403       .  A
C33          C38   1.403   1_455  A
C34          C35   1.403   1_455  A
C34          H39   1.084       .  S
C35         C629   1.476       .  S
C35          C36   1.400       .  A
C36          C37   1.400       .  A
C36          H40   1.084       .  S
C37         C617   1.472       .  S
C37          C38   1.401       .  A
C38          H41   1.084       .  S
C42         C593   1.474       .  S
C42          C43   1.399   1_455  A
C42          C47   1.400       .  A
C43          C44   1.401       .  A
C43          H48   1.084       .  S
C44         C605   1.481       .  S
C44          C45   1.404       .  A
C45          C46   1.404       .  A
C45          H49   1.083       .  S
C46         C632   1.477       .  S
C46          C47   1.401   1_655  A
C47          H50   1.084       .  S
O51          V59   1.891       .  S
O51          C61   1.262       .  A
O52          V59   1.893       .  S
O52          C62   1.263       .  A
O53          V59   1.899       .  S
O53          C63   1.264       .  A
O54          V59   1.898       .  S
O54          C64   1.264       .  A
O55          V60   1.898       .  S
O55          C64   1.265       .  A
O56          V60   1.896       .  S
O56          C63   1.263       .  A
O57          V60   1.896       .  S
O57          C62   1.264       .  A
O58          V60   1.897       .  S
O58          C61   1.264       .  A
V59          V60   2.087       .  T
C61         C596   1.476       .  S
C62         C644   1.478       .  S
C63         C572   1.475       .  S
C64         C581   1.479       .  S
C65         C533   1.472       .  S
C65          C66   1.401       .  A
C65          C70   1.397       .  A
C66          C67   1.404       .  A
C66          H71   1.084       .  S
C67         C557   1.480       .  S
C67          C68   1.405       .  A
C68          C69   1.404       .  A
C68          H72   1.084       .  S
C69         C545   1.477       .  S
C69          C70   1.399       .  A
C70          H73   1.084       .  S
C74         C512   1.484       .  S
C74          C75   1.403       .  A
C74          C79   1.404       .  A
C75          C76   1.402       .  A
C75          H80   1.084       .  S
C76         C560   1.477       .  S
C76          C77   1.402       .  A
C77          C78   1.403       .  A
C77          H81   1.084       .  S
C78         C521   1.480       .  S
C78          C79   1.403       .  A
C79          H82   1.084       .  S
C83         C485   1.485       .  S
C83          C84   1.404       .  A
C83          C88   1.404       .  A
C84          C85   1.407       .  A
C84          H89   1.083       .  S
C85         C704   1.493       .  S
C85          C86   1.407       .  A
C86          C87   1.404       .  A
C86          H90   1.084       .  S
C87         C497   1.483       .  S
C87          C88   1.403       .  A
C88          H91   1.084       .  S
C92         C476   1.477       .  S
C92          C93   1.404       .  A
C92          C97   1.400       .  A
C93          C94   1.404       .  A
C93          H98   1.084       .  S
C94         C500   1.483       .  S
C94          C95   1.405       .  A
C95          C96   1.403       .  A
C95          H99   1.084       .  S
C96         C584   1.479       .  S
C96          C97   1.401       .  A
C97         H100   1.084       .  S
C101        C452   1.484       .  S
C101        C102   1.404       .  A
C101        C106   1.404   1_655  A
C102        C103   1.402   1_655  A
C102        H107   1.084       .  S
C103        C461   1.478       .  S
C103        C104   1.401       .  A
C104        C105   1.402       .  A
C104        H108   1.084       .  S
C105        C440   1.478       .  S
C105        C106   1.404       .  A
C106        H109   1.084       .  S
C110        C425   1.477       .  S
C110        C111   1.402       .  A
C110        C115   1.402   1_655  A
C111        C112   1.401   1_655  A
C111        H116   1.084       .  S
C112        C464   1.481       .  S
C112        C113   1.402       .  A
C113        C114   1.406       .  A
C113        H117   1.082       .  S
C114        C416   1.490       .  S
C114        C115   1.405       .  A
C115        H118   1.083       .  S
C119        C692   1.482       .  S
C119        C120   1.402       .  A
C119        C124   1.403   1_565  A
C120        C121   1.401       .  A
C120        H125   1.084       .  S
C121        C401   1.481       .  S
C121        C122   1.403   1_565  A
C122        C123   1.407       .  A
C122        H126   1.083       .  S
C123        C389   1.491       .  S
C123        C124   1.408       .  A
C124        H127   1.083       .  S
C128        C569   1.476       .  S
C128        C129   1.401       .  A
C128        C133   1.401       .  A
C129        C130   1.403   1_565  A
C129        H134   1.084       .  S
C130        C377   1.485       .  S
C130        C131   1.407       .  A
C131        C132   1.403   1_545  A
C131        H135   1.084       .  S
C132        C404   1.480       .  S
C132        C133   1.402       .  A
C133        H136   1.084       .  S
O137        V145   1.894       .  S
O137        C147   1.263       .  A
O138        V145   1.905       .  S
O138        C148   1.264       .  A
O139        V145   1.901       .  S
O139        C149   1.264       .  A
O140        V145   1.904       .  S
O140        C150   1.265       .  A
O141        V146   1.895       .  S
O141        C150   1.262       .  A
O142        V146   1.897       .  S
O142        C149   1.263       .  A
O143        V146   1.902       .  S
O143        C148   1.265       .  A
O144        V146   1.902       .  S
O144        C147   1.265       .  A
V145        V146   2.088       .  T
C147        C473   1.480       .  S
C148        C380   1.475       .  S
C149        C509   1.468       .  S
C150        C413   1.471       .  S
O151        V159   1.899       .  S
O151        C161   1.264       .  A
O152        V159   1.900       .  S
O152        C162   1.264       .  A
O153        V159   1.899       .  S
O153        C163   1.263       .  A
O154        V159   1.896       .  S
O154        C164   1.264       .  A
O155        V160   1.898       .  S
O155        C164   1.264       .  A
O156        V160   1.894       .  S
O156        C163   1.261       .  A
O157        V160   1.902       .  S
O157        C162   1.264       .  A
O158        V160   1.903       .  S
O158        C161   1.266       .  A
V159        V160   2.088       .  T
C161        C488   1.484       .  S
C162        C392   1.472       .  S
C163        C536   1.462       .  S
C164        C437   1.480       .  S
O165        V173   1.900       .  S
O165        C175   1.266       .  A
O166        V173   1.900       .  S
O166        C176   1.264       .  A
O167        V173   1.897       .  S
O167        C177   1.264       .  A
O168        V173   1.899       .  S
O168        C178   1.264       .  A
O169        V174   1.901       .  S
O169        C178   1.265       .  A
O170        V174   1.897       .  S
O170        C177   1.264       .  A
O171        V174   1.896       .  S
O171        C176   1.265       .  A
O172        V174   1.895       .  S
O172        C175   1.262       .  A
V173        V174   2.085       .  T
C175        C353   1.486       .  S
C176        C368   1.484       .  S
C177        C548   1.479       .  S
C178        C449   1.483       .  S
C179        C356   1.484       .  S
C179        C180   1.403       .  A
C179        C184   1.405       .  A
C180        C181   1.398       .  A
C180        H185   1.084       .  S
C181        C332   1.473       .  S
C181        C182   1.399       .  A
C182        C183   1.402       .  A
C182        H186   1.084       .  S
C183        C341   1.477       .  S
C183        C184   1.405       .  A
C184        H187   1.083       .  S
C188        C317   1.481       .  S
C188        C189   1.403       .  A
C188        C193   1.404       .  A
C189        C190   1.401       .  A
C189        H194   1.084       .  S
C190        C344   1.476       .  S
C190        C191   1.399       .  A
C191        C192   1.403       .  A
C191        H195   1.084       .  S
C192        C305   1.481       .  S
C192        C193   1.404       .  A
C193        H196   1.084       .  S
C197        C281   1.481       .  S
C197        C198   1.403       .  A
C197        C202   1.403   1_565  A
C198        C199   1.403   1_565  A
C198        H203   1.084       .  S
C199        C293   1.480       .  S
C199        C200   1.402       .  A
C200        C201   1.403       .  A
C200        H204   1.084       .  S
C201        C365   1.482       .  S
C201        C202   1.403       .  A
C202        H205   1.084       .  S
C206        C257   1.481       .  S
C206        C207   1.402       .  A
C206        C211   1.405       .  A
C207        C208   1.401   1_545  A
C207        H212   1.084       .  S
C208        C272   1.476       .  S
C208        C209   1.401       .  A
C209        C210   1.403   1_565  A
C209        H213   1.084       .  S
C210        C296   1.480       .  S
C210        C211   1.403       .  A
C211        H214   1.084       .  S
O215        V223   1.899       .  S
O215        C225   1.264       .  A
O216        V223   1.899       .  S
O216        C226   1.263       .  A
O217        V223   1.897       .  S
O217        C227   1.264       .  A
O218        V223   1.892       .  S
O218        C228   1.263       .  A
O219        V224   1.902       .  S
O219        C228   1.265       .  A
O220        V224   1.897       .  S
O220        C227   1.264       .  A
O221        V224   1.895       .  S
O221        C226   1.262       .  A
O222        V224   1.893       .  S
O222        C225   1.261       .  A
V223        V224   2.089       .  T
C225        C308   1.463       .  S
C226        C260   1.464       .  S
C227        C428   1.475       .  S
C228        C524   1.481       .  S
O229        V237   1.900       .  S
O229        C239   1.264       .  A
O230        V237   1.896       .  S
O230        C240   1.264       .  A
O231        V237   1.894       .  S
O231        C241   1.263       .  A
O232        V237   1.897       .  S
O232        C242   1.263       .  A
O233        V238   1.899       .  S
O233        C242   1.265       .  A
O234        V238   1.901       .  S
O234        C241   1.265       .  A
O235        V238   1.893       .  S
O235        C240   1.263       .  A
O236        V238   1.892       .  S
O236        C239   1.263       .  A
V237        V238   2.087       .  T
C239        C620   1.473       .  S
C240        C668   1.473       .  S
C241        C329   1.476       .  S
C242        C284   1.481       .  S
O243        V251   1.892       .  S
O243        C253   1.263       .  A
O244        V251   1.892       .  S
O244        C254   1.264       .  A
O245        V251   1.897       .  S
O245        C255   1.263       .  A
O246        V251   1.897       .  S
O246        C256   1.264       .  A
O247        V252   1.896       .  S
O247        C256   1.264       .  A
O248        V252   1.896       .  S
O248        C255   1.262       .  A
O249        V252   1.898       .  S
O249        C254   1.264       .  A
O250        V252   1.898       .  S
O250        C253   1.264       .  A
V251        V252   2.087       .  T
C253        C653   1.476       .  S
C254        C608   1.482       .  S
C255        C320   1.464       .  S
C256        C269   1.475       .  S
C257        C258   1.406       .  A
C257        C262   1.415       .  A
C258        C259   1.398       .  A
C258        H267   1.084       .  S
C259        C260   1.409       .  A
C259        S263   1.804       .  S
C260        C261   1.400       .  A
C261        C262   1.398       .  A
C261        H268   1.084       .  S
C262        S264   1.804       .  S
S263        H266   1.405       .  S
S264        H265   1.407       .  S
C269        C270   1.404       .  A
C269        C274   1.414       .  A
C270        C271   1.397       .  A
C270        H279   1.084       .  S
C271        C272   1.413       .  A
C271        S275   1.805       .  S
C272        C273   1.403       .  A
C273        C274   1.398       .  A
C273        H280   1.084       .  S
C274        S276   1.803       .  S
S275        H278   1.407       .  S
S276        H277   1.408       .  S
C281        C282   1.403       .  A
C281        C286   1.414       .  A
C282        C283   1.404       .  A
C282        H291   1.083       .  S
C283        C284   1.416       .  A
C283        S287   1.809       .  S
C284        C285   1.403       .  A
C285        C286   1.396       .  A
C285        H292   1.084       .  S
C286        S288   1.805       .  S
S287        H290   1.407       .  S
S288        H289   1.406       .  S
C293        C294   1.403   1_545  A
C293        C298   1.414       .  A
C294        C295   1.397       .  A
C294        H303   1.084       .  S
C295        C296   1.414   1_565  A
C295        S299   1.805       .  S
C296        C297   1.404       .  A
C297        C298   1.400       .  A
C297        H304   1.084       .  S
C298        S300   1.804       .  S
S299        H302   1.407       .  S
S300        H301   1.406       .  S
C305        C306   1.406       .  A
C305        C310   1.415       .  A
C306        C307   1.399       .  A
C306        H315   1.084       .  S
C307        C308   1.409       .  A
C307        S311   1.804       .  S
C308        C309   1.399       .  A
C309        C310   1.397       .  A
C309        H316   1.085       .  S
C310        S312   1.805       .  S
S311        H314   1.406       .  S
S312        H313   1.407       .  S
C317        C318   1.406       .  A
C317        C322   1.416       .  A
C318        C319   1.399       .  A
C318        H327   1.084       .  S
C319        C320   1.409       .  A
C319        S323   1.804       .  S
C320        C321   1.400       .  A
C321        C322   1.397       .  A
C321        H328   1.084       .  S
C322        S324   1.805       .  S
S323        H326   1.406       .  S
S324        H325   1.407       .  S
C329        C330   1.403       .  A
C329        C334   1.414       .  A
C330        C331   1.396       .  A
C330        H339   1.084       .  S
C331        C332   1.412       .  A
C331        S335   1.806       .  S
C332        C333   1.402       .  A
C333        C334   1.400       .  A
C333        H340   1.084       .  S
C334        S336   1.803       .  S
S335        H338   1.406       .  S
S336        H337   1.408       .  S
C341        C342   1.403       .  A
C341        C346   1.413       .  A
C342        C343   1.398   1_554  A
C342        H351   1.084       .  S
C343        C344   1.412       .  A
C343        S347   1.804       .  S
C344        C345   1.403       .  A
C345        C346   1.398   1_556  A
C345        H352   1.084       .  S
C346        S348   1.804       .  S
S347        H350   1.406       .  S
S348        H349   1.406       .  S
C353        C354   1.407       .  A
C353        C358   1.418       .  A
C354        C355   1.400       .  A
C354        H363   1.084       .  S
C355        C356   1.414       .  A
C355        S359   1.804       .  S
C356        C357   1.403       .  A
C357        C358   1.396       .  A
C357        H364   1.084       .  S
C358        S360   1.800       .  S
S359        H362   1.406       .  S
S360        H361   1.407       .  S
C365        C366   1.404       .  A
C365        C370   1.412       .  A
C366        C367   1.402       .  A
C366        H375   1.083       .  S
C367        C368   1.416       .  A
C367        S371   1.808       .  S
C368        C369   1.407       .  A
C369        C370   1.398       .  A
C369        H376   1.084       .  S
C370        S372   1.804       .  S
S371        H374   1.407       .  S
S372        H373   1.406       .  S
C377        C378   1.402       .  A
C377        C382   1.417       .  A
C378        C379   1.394       .  A
C378        H387   1.085       .  S
C379        C380   1.409       .  A
C379        S383   1.792       .  S
C380        C381   1.401       .  A
C381        C382   1.401       .  A
C381        H388   1.083       .  S
C382        S384   1.804       .  S
S383        H386   1.407       .  S
S384        H385   1.407       .  S
C389        C390   1.408       .  A
C389        C394   1.417       .  A
C390        C391   1.399       .  A
C390        H399   1.083       .  S
C391        C392   1.410       .  A
C391        S395   1.803       .  S
C392        C393   1.401       .  A
C393        C394   1.400       .  A
C393        H400   1.082       .  S
C394        S396   1.805       .  S
S395        H398   1.405       .  S
S396        H397   1.407       .  S
C401        C402   1.403       .  A
C401        C406   1.414   1_565  A
C402        C403   1.397       .  A
C402        H411   1.084       .  S
C403        C404   1.414       .  A
C403        S407   1.805       .  S
C404        C405   1.404   1_565  A
C405        C406   1.401       .  A
C405        H412   1.084       .  S
C406        S408   1.803       .  S
S407        H410   1.406       .  S
S408        H409   1.406       .  S
C413        C414   1.397       .  A
C413        C418   1.409       .  A
C414        C415   1.394       .  A
C414        H423   1.077       .  S
C415        C416   1.418       .  A
C415        S419   1.806       .  S
C416        C417   1.410       .  A
C417        C418   1.401       .  A
C417        H424   1.083       .  S
C418        S420   1.803       .  S
S419        H422   1.407       .  S
S420        H421   1.406       .  S
C425        C426   1.402       .  A
C425        C430   1.413       .  A
C426        C427   1.398       .  A
C426        H435   1.084       .  S
C427        C428   1.414       .  A
C427        S431   1.803       .  S
C428        C429   1.403       .  A
C429        C430   1.398       .  A
C429        H436   1.084       .  S
C430        S432   1.804       .  S
S431        H434   1.407       .  S
S432        H433   1.406       .  S
C437        C438   1.405       .  A
C437        C442   1.416       .  A
C438        C439   1.399       .  A
C438        H447   1.084       .  S
C439        C440   1.413       .  A
C439        S443   1.805       .  S
C440        C441   1.402       .  A
C441        C442   1.398       .  A
C441        H448   1.084       .  S
C442        S444   1.803       .  S
S443        H446   1.406       .  S
S444        H445   1.408       .  S
C449        C450   1.405       .  A
C449        C454   1.416       .  A
C450        C451   1.400       .  A
C450        H459   1.084       .  S
C451        C452   1.414       .  A
C451        S455   1.804       .  S
C452        C453   1.403       .  A
C453        C454   1.398       .  A
C453        H460   1.084       .  S
C454        S456   1.800       .  S
S455        H458   1.406       .  S
S456        H457   1.406       .  S
C461        C462   1.403       .  A
C461        C466   1.412   1_455  A
C462        C463   1.400       .  A
C462        H471   1.084       .  S
C463        C464   1.414       .  A
C463        S467   1.804       .  S
C464        C465   1.404   1_455  A
C465        C466   1.397       .  A
C465        H472   1.084       .  S
C466        S468   1.805       .  S
S467        H470   1.406       .  S
S468        H469   1.407       .  S
C473        C474   1.407       .  A
C473        C478   1.414       .  A
C474        C475   1.399       .  A
C474        H483   1.084       .  S
C475        C476   1.411       .  A
C475        S479   1.804       .  S
C476        C477   1.403       .  A
C477        C478   1.398       .  A
C477        H484   1.084       .  S
C478        S480   1.802       .  S
S479        H482   1.406       .  S
S480        H481   1.408       .  S
C485        C486   1.403       .  A
C485        C490   1.414       .  A
C486        C487   1.400       .  A
C486        H495   1.084       .  S
C487        C488   1.417       .  A
C487        S491   1.803       .  S
C488        C489   1.405       .  A
C489        C490   1.401       .  A
C489        H496   1.084       .  S
C490        S492   1.804       .  S
S491        H494   1.405       .  S
S492        H493   1.407       .  S
C497        C498   1.404       .  A
C497        C502   1.414       .  A
C498        C499   1.399   1_554  A
C498        H507   1.084       .  S
C499        C500   1.414       .  A
C499        S503   1.805       .  S
C500        C501   1.404       .  A
C501        C502   1.401   1_556  A
C501        H508   1.084       .  S
C502        S504   1.803       .  S
S503        H506   1.407       .  S
S504        H505   1.406       .  S
C509        C510   1.401       .  A
C509        C514   1.411       .  A
C510        C511   1.399       .  A
C510        H519   1.084       .  S
C511        C512   1.416       .  A
C511        S515   1.805       .  S
C512        C513   1.405       .  A
C513        C514   1.398       .  A
C513        H520   1.084       .  S
C514        S516   1.804       .  S
S515        H518   1.407       .  S
S516        H517   1.398       .  S
C521        C522   1.403       .  A
C521        C526   1.412       .  A
C522        C523   1.399       .  A
C522        H531   1.084       .  S
C523        C524   1.415       .  A
C523        S527   1.799       .  S
C524        C525   1.406       .  A
C525        C526   1.398       .  A
C525        H532   1.084       .  S
C526        S528   1.804       .  S
S527        H530   1.407       .  S
S528        H529   1.406       .  S
C533        C534   1.403       .  A
C533        C538   1.412       .  A
C534        C535   1.397       .  A
C534        H543   1.084       .  S
C535        C536   1.409       .  A
C535        S539   1.801       .  S
C536        C537   1.400       .  A
C537        C538   1.396       .  A
C537        H544   1.083       .  S
C538        S540   1.803       .  S
S539        H542   1.405       .  S
S540        H541   1.406       .  S
C545        C546   1.402       .  A
C545        C550   1.412       .  A
C546        C547   1.395       .  A
C546        H555   1.084       .  S
C547        C548   1.415       .  A
C547        S551   1.800       .  S
C548        C549   1.406       .  A
C549        C550   1.399       .  A
C549        H556   1.084       .  S
C550        S552   1.804       .  S
S551        H554   1.406       .  S
S552        H553   1.406       .  S
C557        C558   1.404       .  A
C557        C562   1.414       .  A
C558        C559   1.400   1_554  A
C558        H567   1.084       .  S
C559        C560   1.413       .  A
C559        S563   1.803       .  S
C560        C561   1.402       .  A
C561        C562   1.397   1_556  A
C561        H568   1.084       .  S
C562        S564   1.803       .  S
S563        H566   1.406       .  S
S564        H565   1.406       .  S
C569        C570   1.402       .  A
C569        C574   1.413       .  A
C570        C571   1.398       .  A
C570        H579   1.084       .  S
C571        C572   1.414       .  A
C571        S575   1.803       .  S
C572        C573   1.403       .  A
C573        C574   1.398       .  A
C573        H580   1.083       .  S
C574        S576   1.804       .  S
S575        H578   1.408       .  S
S576        H577   1.407       .  S
C581        C582   1.404       .  A
C581        C586   1.415       .  A
C582        C583   1.397       .  A
C582        H591   1.084       .  S
C583        C584   1.414       .  A
C583        S587   1.805       .  S
C584        C585   1.403       .  A
C585        C586   1.400       .  A
C585        H592   1.084       .  S
C586        S588   1.803       .  S
S587        H590   1.407       .  S
S588        H589   1.408       .  S
C593        C594   1.401       .  A
C593        C598   1.412       .  A
C594        C595   1.395       .  A
C594        H603   1.084       .  S
C595        C596   1.415       .  A
C595        S599   1.803       .  S
C596        C597   1.405       .  A
C597        C598   1.398       .  A
C597        H604   1.084       .  S
C598        S600   1.804       .  S
S599        H602   1.407       .  S
S600        H601   1.406       .  S
C605        C606   1.404       .  A
C605        C610   1.412       .  A
C606        C607   1.396       .  A
C606        H615   1.084       .  S
C607        C608   1.415       .  A
C607        S611   1.800       .  S
C608        C609   1.407       .  A
C609        C610   1.398       .  A
C609        H616   1.084       .  S
C610        S612   1.804       .  S
S611        H614   1.408       .  S
S612        H613   1.406       .  S
C617        C618   1.401       .  A
C617        C622   1.412       .  A
C618        C619   1.396       .  A
C618        H627   1.084       .  S
C619        C620   1.414       .  A
C619        S623   1.804       .  S
C620        C621   1.404       .  A
C621        C622   1.399       .  A
C621        H628   1.084       .  S
C622        S624   1.804       .  S
S623        H626   1.407       .  S
S624        H625   1.406       .  S
C629        C630   1.403       .  A
C629        C634   1.412   1_655  A
C630        C631   1.398       .  A
C630        H639   1.084       .  S
C631        C632   1.413       .  A
C631        S635   1.804       .  S
C632        C633   1.404   1_655  A
C633        C634   1.397       .  A
C633        H640   1.084       .  S
C634        S636   1.804       .  S
S635        H638   1.406       .  S
S636        H637   1.406       .  S
C641        C642   1.401       .  A
C641        C646   1.413       .  A
C642        C643   1.396       .  A
C642        H651   1.084       .  S
C643        C644   1.416       .  A
C643        S647   1.803       .  S
C644        C645   1.405       .  A
C645        C646   1.398       .  A
C645        H652   1.084       .  S
C646        S648   1.805       .  S
S647        H650   1.408       .  S
S648        H649   1.406       .  S
C653        C654   1.405       .  A
C653        C658   1.415       .  A
C654        C655   1.399       .  A
C654        H663   1.084       .  S
C655        C656   1.413       .  A
C655        S659   1.804       .  S
C656        C657   1.401       .  A
C657        C658   1.395       .  A
C657        H664   1.084       .  S
C658        S660   1.803       .  S
S659        H662   1.406       .  S
S660        H661   1.407       .  S
C665        C666   1.399       .  A
C665        C670   1.410       .  A
C666        C667   1.397       .  A
C666        H675   1.084       .  S
C667        C668   1.415       .  A
C667        S671   1.803       .  S
C668        C669   1.403       .  A
C669        C670   1.400       .  A
C669        H676   1.083       .  S
C670        S672   1.808       .  S
S671        H674   1.407       .  S
S672        H673   1.407       .  S
C677        C678   1.401       .  A
C677        C682   1.412       .  A
C678        C679   1.397   1_556  A
C678        H687   1.084       .  S
C679        C680   1.415       .  A
C679        S683   1.805       .  S
C680        C681   1.403       .  A
C681        C682   1.397   1_554  A
C681        H688   1.084       .  S
C682        S684   1.805       .  S
S683        H686   1.407       .  S
S684        H685   1.406       .  S
C689        C690   1.405       .  A
C689        C694   1.416       .  A
C690        C691   1.398       .  A
C690        H699   1.084       .  S
C691        C692   1.412       .  A
C691        S695   1.805       .  S
C692        C693   1.404       .  A
C693        C694   1.402       .  A
C693        H700   1.084       .  S
C694        S696   1.802       .  S
S695        H698   1.407       .  S
S696        H697   1.407       .  S
C701        C702   1.400       .  A
C701        C706   1.412       .  A
C702        C703   1.400       .  A
C702        H711   1.083       .  S
C703        C704   1.419       .  A
C703        S707   1.804       .  S
C704        C705   1.408       .  A
C705        C706   1.401       .  A
C705        H712   1.083       .  S
C706        S708   1.805       .  S
S707        H710   1.407       .  S
S708        H709   1.401       .  S
C713        C714   1.402       .  A
C713        C718   1.412       .  A
C714        C715   1.395       .  A
C714        H723   1.084       .  S
C715        C716   1.416       .  A
C715        S719   1.803       .  S
C716        C717   1.407       .  A
C717        C718   1.399       .  A
C717        H724   1.084       .  S
C718        S720   1.804       .  S
S719        H722   1.406       .  S
S720        H721   1.406       .  S
C725        C726   1.404       .  A
C725        C730   1.416       .  A
C726        C727   1.398       .  A
C726        H735   1.084       .  S
C727        C728   1.413       .  A
C727        S731   1.804       .  S
C728        C729   1.402       .  A
C729        C730   1.399       .  A
C729        H736   1.084       .  S
C730        S732   1.803       .  S
S731        H734   1.406       .  S
S732        H733   1.406       .  S
