geometry optimzed in LAMMPS
_audit_creation_date              2020-12-01 
_audit_creation_method            'lammps2cif' 
_symmetry_space_group_name_H-M    'P1' 
_symmetry_Int_Tables_number       1 
_symmetry_cell_setting            triclinic 
loop_ 
_symmetry_equiv_pos_as_xyz 
  x,y,z 
_cell_length_a                    28.25109454 
_cell_length_b                    28.261044998816374 
_cell_length_c                    28.259815971349713 
_cell_angle_alpha                 90.01813541109185 
_cell_angle_beta                  89.82397525749705 
_cell_angle_gamma                 89.9358586181602 
loop_ 
_atom_site_label 
_atom_site_type_symbol 
_atom_site_fract_x 
_atom_site_fract_y 
_atom_site_fract_z 
_atom_site_charge 
O1          O  0.66758476  0.39451934  0.96094214    -0.74400
O2          O  0.66465259  0.25928197  0.96100803    -0.74500
O3          O  0.59827576  0.32813792  0.96245752    -0.74500
O4          O  0.73399615  0.32534393  0.95996949    -0.74600
O5          O  0.73476738  0.32649030  0.03893090    -0.74500
O6          O  0.59930532  0.32814528  0.04143681    -0.74500
O7          O  0.66520848  0.25928569  0.03996981    -0.74400
O8          O  0.66820489  0.39494665  0.03992228    -0.74500
Ni9        Ni  0.66608886  0.32682961  0.95828175     1.25400
Ni10       Ni  0.66699183  0.32715320  0.04288833     1.25400
C11         C  0.66850289  0.41696295  0.00029912     0.87800
C12         C  0.66371815  0.23705752  0.00044814     0.87700
C13         C  0.57655660  0.32814244  0.00235535     0.87700
C14         C  0.75665591  0.32634802  0.99916155     0.87900
O15         O  0.50204660  0.32891847  0.96417458    -0.74400
O16         O  0.36671442  0.33107907  0.96632901    -0.74500
O17         O  0.43539504  0.39732100  0.96619946    -0.74500
O18         O  0.43394838  0.26204987  0.96421795    -0.74600
O19         O  0.43348533  0.26057863  0.04321134    -0.74500
O20         O  0.43643368  0.39640479  0.04516624    -0.74500
O21         O  0.36722732  0.32979016  0.04525559    -0.74400
O22         O  0.50288050  0.32726087  0.04314112    -0.74500
Ni23       Ni  0.43440652  0.32979816  0.96246954     1.25400
Ni24       Ni  0.43504297  0.32843198  0.04707028     1.25400
C25         C  0.52469474  0.32808280  0.00330404     0.87800
C26         C  0.34467590  0.33122045  0.00602126     0.87700
C27         C  0.43649772  0.41910138  0.00589341     0.87700
C28         C  0.43367779  0.23911129  0.00326647     0.87900
O29         O  0.60239661  0.55913451  0.96078058    -0.74400
O30         O  0.73817344  0.55666259  0.95739623    -0.74500
O31         O  0.66925245  0.49051748  0.96000171    -0.74500
O32         O  0.67064173  0.62620486  0.95800175    -0.74600
O33         O  0.67255664  0.62714588  0.03686978    -0.74500
O34         O  0.67130698  0.49159728  0.03894503    -0.74500
O35         O  0.73968761  0.55881959  0.03632531    -0.74400
O36         O  0.60428383  0.56003150  0.03972879    -0.74500
Ni37       Ni  0.67013359  0.55816489  0.95619398     1.25400
Ni38       Ni  0.67205463  0.55945193  0.04074281     1.25400
C39         C  0.58110121  0.55972959  0.00088042     0.87800
C40         C  0.76118523  0.55697128  0.99641964     0.87700
C41         C  0.66980274  0.46882317  0.99977661     0.87700
C42         C  0.67142608  0.64905821  0.99720311     0.87900
O43         O  0.43759549  0.49297432  0.96631481    -0.74400
O44         O  0.43940681  0.62847527  0.96519123    -0.74500
O45         O  0.50605387  0.55989690  0.96357023    -0.74500
O46         O  0.37074775  0.56100414  0.96766702    -0.74600
O47         O  0.37228335  0.56237212  0.04664309    -0.74500
O48         O  0.50792509  0.56056847  0.04252652    -0.74500
O49         O  0.44049049  0.62905221  0.04417617    -0.74400
O50         O  0.43919291  0.49347990  0.04527691    -0.74500
Ni51       Ni  0.43835469  0.56062284  0.96287996     1.25400
Ni52       Ni  0.44012420  0.56138078  0.04748830     1.25400
C53         C  0.43784934  0.47098497  0.00593932     0.87800
C54         C  0.44008802  0.65098875  0.00454795     0.87700
C55         C  0.52922625  0.56007155  0.00240593     0.87700
C56         C  0.34931330  0.56153503  0.00766400     0.87900
O57         O  0.59828011  0.98916830  0.61715892    -0.74400
O58         O  0.73378830  0.98980174  0.61404503    -0.74500
O59         O  0.66509321  0.98954297  0.54805746    -0.74500
O60         O  0.66737135  0.98943934  0.68369765    -0.74600
O61         O  0.66474196  0.91047751  0.68369185    -0.74500
O62         O  0.66734319  0.91059154  0.54827472    -0.74500
O63         O  0.73407929  0.91087892  0.61697550    -0.74400
O64         O  0.59852588  0.91020587  0.61526064    -0.74500
Ni65       Ni  0.66609074  0.99232499  0.61581903     1.25400
Ni66       Ni  0.66625018  0.90771498  0.61604383     1.25400
C67         C  0.57615611  0.94961937  0.61630311     0.87800
C68         C  0.75617356  0.95040256  0.61486902     0.87700
C69         C  0.66639766  0.95001667  0.52591645     0.87700
C70         C  0.66567151  0.94994353  0.70588520     0.87900
O71         O  0.43554708  0.98895038  0.54723257    -0.74400
O72         O  0.43314979  0.98843943  0.68292525    -0.74500
O73         O  0.50192246  0.98891937  0.61609549    -0.74500
O74         O  0.36628736  0.98876107  0.61318390    -0.74600
O75         O  0.36661753  0.90980257  0.61341030    -0.74500
O76         O  0.50210115  0.90994019  0.61591255    -0.74500
O77         O  0.43261169  0.90950175  0.68235572    -0.74400
O78         O  0.43572288  0.90996233  0.54697913    -0.74500
Ni79       Ni  0.43418166  0.99161090  0.61495369     1.25400
Ni80       Ni  0.43429413  0.90701281  0.61468070     1.25400
C81         C  0.43589232  0.94951032  0.52488933     0.87800
C82         C  0.43261006  0.94877283  0.70495595     0.87700
C83         C  0.52425893  0.94947281  0.61619711     0.87700
C84         C  0.34418484  0.94919387  0.61245750     0.87900
O85         O  0.50409339  0.98930316  0.38342994    -0.74400
O86         O  0.36838714  0.99045513  0.38338671    -0.74500
O87         O  0.43609973  0.98935388  0.45114212    -0.74500
O88         O  0.43639720  0.99106176  0.31582863    -0.74600
O89         O  0.43604161  0.91202362  0.31498702    -0.74500
O90         O  0.43623579  0.91036090  0.45056762    -0.74500
O91         O  0.36825409  0.91146485  0.38375609    -0.74400
O92         O  0.50361225  0.91031587  0.38241370    -0.74500
Ni93       Ni  0.43626169  0.99287629  0.38348622     1.25400
Ni94       Ni  0.43595864  0.90822148  0.38281195     1.25400
C95         C  0.52607695  0.94959153  0.38297685     0.87800
C96         C  0.34608907  0.95100347  0.38413741     0.87700
C97         C  0.43617121  0.94971407  0.47306688     0.87700
C98         C  0.43661012  0.95182008  0.29329268     0.87900
O99         O  0.66704844  0.98898878  0.45132681    -0.74400
O100        O  0.66826040  0.98667633  0.31550514    -0.74500
O101        O  0.60026795  0.98842493  0.38288039    -0.74500
O102        O  0.73559250  0.98799075  0.38430179    -0.74600
O103        O  0.73575646  0.90906154  0.38462569    -0.74500
O104        O  0.60003415  0.90945294  0.38414055    -0.74500
O105        O  0.66846839  0.90778314  0.31690091    -0.74400
O106        O  0.66739921  0.91001981  0.45219930    -0.74500
Ni107      Ni  0.66786456  0.99083766  0.38342253     1.25400
Ni108      Ni  0.66791598  0.90626928  0.38454541     1.25400
C109        C  0.66694491  0.94972824  0.47401383     0.87800
C110        C  0.66823438  0.94676138  0.29385633     0.87700
C111        C  0.57792426  0.94908685  0.38330124     0.87700
C112        C  0.75798382  0.94857572  0.38477390     0.87900
O113        O  0.01879933  0.49505358  0.61550515    -0.74400
O114        O  0.01323808  0.63014805  0.61537768    -0.74500
O115        O  0.01565627  0.56260436  0.54780725    -0.74500
O116        O  0.01702473  0.56219748  0.68347699    -0.74600
O117        O  0.09576918  0.56755419  0.68209465    -0.74500
O118        O  0.09465570  0.56376767  0.54659449    -0.74500
O119        O  0.09208753  0.63333142  0.61146151    -0.74400
O120        O  0.09774611  0.49741743  0.61592904    -0.74500
Ni121      Ni  0.01339745  0.56241482  0.61565731     1.25400
Ni122      Ni  0.09792255  0.56561696  0.61415994     1.25400
C123        C  0.05890475  0.47395555  0.61561104     0.87800
C124        C  0.05161664  0.65391499  0.61179198     0.87700
C125        C  0.05492889  0.56330603  0.52497943     0.87700
C126        C  0.05672603  0.56479642  0.70515005     0.87900
O127        O  0.01734301  0.33209895  0.54789513    -0.74400
O128        O  0.01949602  0.33364108  0.68330919    -0.74500
O129        O  0.01968627  0.40019596  0.61525462    -0.74500
O130        O  0.01698495  0.26503870  0.61576081    -0.74600
O131        O  0.09593508  0.26314057  0.61473615    -0.74500
O132        O  0.09867239  0.39918521  0.61454200    -0.74500
O133        O  0.09847273  0.33099287  0.68225752    -0.74400
O134        O  0.09632620  0.33086482  0.54658153    -0.74500
Ni135      Ni  0.01561781  0.33275107  0.61564077     1.25400
Ni136      Ni  0.10022351  0.33099477  0.61443324     1.25400
C137        C  0.05649852  0.33122875  0.52497721     0.87800
C138        C  0.05924071  0.33291904  0.70498919     0.87700
C139        C  0.05938893  0.42197295  0.61514890     0.87700
C140        C  0.05590913  0.24179987  0.61494867     0.87900
O141        O  0.01453049  0.56258622  0.45171945    -0.74400
O142        O  0.01223876  0.56331915  0.31641547    -0.74500
O143        O  0.01430123  0.49534648  0.38379479    -0.74500
O144        O  0.01280107  0.63074386  0.38482913    -0.74600
O145        O  0.09169548  0.63130290  0.38037525    -0.74500
O146        O  0.09332967  0.49584205  0.38397411    -0.74500
O147        O  0.09126448  0.56123235  0.31464099    -0.74400
O148        O  0.09349713  0.56505227  0.45014681    -0.74500
Ni149      Ni  0.01065573  0.56300687  0.38419816     1.25400
Ni150      Ni  0.09530537  0.56349942  0.38225559     1.25400
C151        C  0.05434098  0.56367722  0.47315054     0.87800
C152        C  0.05130153  0.56143729  0.29342076     0.87700
C153        C  0.05400498  0.47340153  0.38401741     0.87700
C154        C  0.05204717  0.65327000  0.38265230     0.87900
O155        O  0.01472127  0.39959094  0.38469338    -0.74400
O156        O  0.01414528  0.26426046  0.38337000    -0.74500
O157        O  0.01570893  0.33126670  0.45162453    -0.74500
O158        O  0.01352119  0.33361942  0.31598035    -0.74600
O159        O  0.09250979  0.33252183  0.31448152    -0.74500
O160        O  0.09469888  0.33054272  0.44996104    -0.74500
O161        O  0.09312981  0.26369428  0.38094357    -0.74400
O162        O  0.09373591  0.39928358  0.38315508    -0.74500
Ni163      Ni  0.01170684  0.33208590  0.38392206     1.25400
Ni164      Ni  0.09634400  0.33145598  0.38210391     1.25400
C165        C  0.05424657  0.42163039  0.38404385     0.87800
C166        C  0.05349959  0.24174189  0.38214593     0.87700
C167        C  0.05561023  0.33090355  0.47305004     0.87700
C168        C  0.05270541  0.33414268  0.29299862     0.87900
O169        O  0.11800163  0.37740708  0.99912760    -0.74400
O170        O  0.98203340  0.37420330  0.99824593    -0.74500
O171        O  0.04911048  0.37701149  0.06646323    -0.74500
O172        O  0.05092568  0.37523289  0.93086040    -0.74600
O173        O  0.05582454  0.29647736  0.93179547    -0.74500
O174        O  0.04956524  0.29804639  0.06712859    -0.74500
O175        O  0.98454079  0.29534139  0.99634600    -0.74400
O176        O  0.11953237  0.29850571  0.00286703    -0.74500
Ni177      Ni  0.04989859  0.37883805  0.99860689     1.25400
Ni178      Ni  0.05227348  0.29431787  0.99952740     1.25400
C179        C  0.14094806  0.33831160  0.00183486     0.87800
C180        C  0.96095354  0.33406301  0.99679094     0.87700
C181        C  0.04964497  0.33773500  0.08906223     0.87700
C182        C  0.05466436  0.33565744  0.90901464     0.87900
O183        O  0.12285631  0.59531517  0.00422325    -0.74400
O184        O  0.98762589  0.59395113  0.99698386    -0.74500
O185        O  0.05141865  0.59357418  0.06758986    -0.74500
O186        O  0.05921717  0.59598063  0.93256747    -0.74600
O187        O  0.05755573  0.51705294  0.93088206    -0.74500
O188        O  0.05356610  0.51478152  0.06665587    -0.74500
O189        O  0.98790860  0.51502105  0.99656041    -0.74400
O190        O  0.12351012  0.51647418  0.00075036    -0.74500
Ni191      Ni  0.05524470  0.59747244  0.00028126     1.25400
Ni192      Ni  0.05573684  0.51297144  0.99865504     1.25400
C193        C  0.14547403  0.55603337  0.00362690     0.87800
C194        C  0.96544960  0.55441766  0.99645605     0.87700
C195        C  0.05163304  0.55395466  0.08953427     0.87700
C196        C  0.05883117  0.55699965  0.90945562     0.87900
O197        O  0.98463641  0.94648579  0.34481344    -0.74400
O198        O  0.12011582  0.94929376  0.34556154    -0.74500
O199        O  0.05384035  0.88016385  0.34453449    -0.74500
O200        O  0.05157837  0.01553397  0.34559109    -0.74600
O201        O  0.05220024  0.01512060  0.42452175    -0.74500
O202        O  0.05045339  0.87942540  0.42339633    -0.74500
O203        O  0.11941132  0.94627445  0.42444725    -0.74400
O204        O  0.98386511  0.94856277  0.42378058    -0.74500
Ni205      Ni  0.05250467  0.94786278  0.34231870     1.25400
Ni206      Ni  0.05150539  0.94727616  0.42687575     1.25400
C207        C  0.96202910  0.94752347  0.38418163     0.87800
C208        C  0.14205630  0.94832713  0.38513289     0.87700
C209        C  0.05227651  0.85746761  0.38372123     0.87700
C210        C  0.05188578  0.03764353  0.38516244     0.87900
O211        O  0.11836233  0.94401394  0.64481397    -0.74400
O212        O  0.98323020  0.94815965  0.64770800    -0.74500
O213        O  0.04825899  0.87887933  0.64366246    -0.74500
O214        O  0.05327119  0.01393285  0.64892472    -0.74600
O215        O  0.04923130  0.01715415  0.57012886    -0.74500
O216        O  0.04944199  0.88127940  0.56478781    -0.74500
O217        O  0.98158887  0.94965854  0.56879048    -0.74400
O218        O  0.11743452  0.94981686  0.56607922    -0.74500
Ni219      Ni  0.05085366  0.94617337  0.64902533     1.25400
Ni220      Ni  0.04941727  0.94951666  0.56455018     1.25400
C221        C  0.14018346  0.94700038  0.60515625     0.87800
C222        C  0.96013060  0.94897149  0.60881553     0.87700
C223        C  0.04782289  0.85776061  0.60359609     0.87700
C224        C  0.05174681  0.03777506  0.61043366     0.87900
O225        O  0.69939766  0.01184491  0.99954009    -0.74400
O226        O  0.70262264  0.87656106  0.99917179    -0.74500
O227        O  0.70051443  0.94507758  0.93184727    -0.74500
O228        O  0.70150236  0.94359893  0.06720557    -0.74600
O229        O  0.62247758  0.94217355  0.06809886    -0.74500
O230        O  0.62159021  0.94368304  0.93241975    -0.74500
O231        O  0.62363030  0.87471179  0.99872597    -0.74400
O232        O  0.62040261  0.01049174  0.00133399    -0.74500
Ni233      Ni  0.70378773  0.94429534  0.99946775     1.25400
Ni234      Ni  0.61916618  0.94261660  0.00023770     1.25400
C235        C  0.65949622  0.03337621  0.00007046     0.87800
C236        C  0.66371963  0.85339688  0.99840450     0.87700
C237        C  0.66095984  0.94499298  0.90980328     0.87700
C238        C  0.66219483  0.94303206  0.08985361     0.87900
O239        O  0.39877763  0.01211094  0.99752970    -0.74400
O240        O  0.40117343  0.87670515  0.00292511    -0.74500
O241        O  0.40105044  0.94733033  0.06746911    -0.74500
O242        O  0.39885928  0.94158281  0.93216389    -0.74600
O243        O  0.47775722  0.94510397  0.93043196    -0.74500
O244        O  0.47985922  0.94730147  0.06602916    -0.74500
O245        O  0.48002290  0.87806739  0.99926031    -0.74400
O246        O  0.47768608  0.01352362  0.99685155    -0.74500
Ni247      Ni  0.39716121  0.94433166  0.99999516     1.25400
Ni248      Ni  0.48165394  0.94592733  0.99810420     1.25400
C249        C  0.43783176  0.03515576  0.99688752     0.87800
C250        C  0.44101964  0.85507140  0.00171274     0.87700
C251        C  0.44077153  0.94834845  0.08919118     0.87700
C252        C  0.43789250  0.94348805  0.90903837     0.87900
C253        C  0.05317015  0.18965600  0.38268976    -0.05500
C254        C  0.02691095  0.16566732  0.41738346    -0.32900
C255        C  0.02701196  0.11613430  0.41927887     0.36400
C256        C  0.05226176  0.08989611  0.38508210    -0.05800
C257        C  0.07790151  0.11403143  0.34994883    -0.32800
C258        C  0.07915579  0.16354783  0.34911651     0.36300
H259        H  0.00689158  0.18542934  0.44354418     0.16600
O260        O  0.00088883  0.09374961  0.45355319    -0.60300
H261        H  0.09757279  0.09442551  0.32341797     0.16600
O262        O  0.10426384  0.18613915  0.31419903    -0.60400
H263        H  0.13723127  0.18766717  0.32604092     0.43600
H264        H  0.02269717  0.09029472  0.48075301     0.43600
C265        C  0.05129184  0.33794530  0.14119235    -0.05500
C266        C  0.02322654  0.36981200  0.16709368    -0.32900
C267        C  0.02304123  0.36871666  0.21670615     0.36400
C268        C  0.05222069  0.33636880  0.24091499    -0.05800
C269        C  0.08174135  0.30598836  0.21498384    -0.32800
C270        C  0.08115192  0.30633295  0.16551195     0.36300
H271        H  0.00072589  0.39491673  0.14885106     0.16600
O272        O  0.99563578  0.40050380  0.24123238    -0.60300
H273        H  0.10477214  0.28132238  0.23317212     0.16600
O274        O  0.11030531  0.27596124  0.14120532    -0.60400
H275        H  0.14049413  0.29340666  0.13717296     0.43600
H276        H  0.96358459  0.38627531  0.24223362     0.43600
C277        C  0.05162147  0.70537842  0.38289998    -0.05500
C278        C  0.07876771  0.73025399  0.34959775    -0.32900
C279        C  0.07879533  0.77979329  0.34909294     0.36400
C280        C  0.05240660  0.80519440  0.38312485    -0.05800
C281        C  0.02582592  0.78017997  0.41689504    -0.32800
C282        C  0.02455507  0.73064442  0.41633935     0.36300
H283        H  0.09953250  0.71118359  0.32350651     0.16600
O284        O  0.10520635  0.80298669  0.31555677    -0.60300
H285        H  0.00532536  0.79909629  0.44329836     0.19000
O286        O  0.99822100  0.70719085  0.44975272    -0.60400
H287        H  0.96567740  0.70611570  0.43675815     0.43600
H288        H  0.13656348  0.80806353  0.33038637     0.43600
C289        C  0.04995100  0.55423926  0.14197901    -0.05500
C290        C  0.03544553  0.59570750  0.16558820    -0.32900
C291        C  0.03518636  0.59813195  0.21498887     0.36400
C292        C  0.05022897  0.55909414  0.24163474    -0.05800
C293        C  0.06441607  0.51750837  0.21857735    -0.32800
C294        C  0.06415191  0.51471977  0.16908155     0.36300
H295        H  0.02434906  0.62655316  0.14573473     0.16600
O296        O  0.02211415  0.63947348  0.23690413    -0.60300
H297        H  0.07570591  0.48711256  0.23904675     0.16600
O298        O  0.07846237  0.47349110  0.14776076    -0.60400
H299        H  0.11311876  0.47687741  0.14327520     0.43600
H300        H  0.98741459  0.63692719  0.24159045     0.43600
C301        C  0.05962870  0.33473570  0.75700431    -0.05500
C302        C  0.08578806  0.30136211  0.78267172    -0.32900
C303        C  0.08424717  0.30099777  0.83224429     0.36400
C304        C  0.05740739  0.33533864  0.85676886    -0.05800
C305        C  0.03282174  0.36987403  0.83088093    -0.32800
C306        C  0.03344887  0.36946201  0.78138846     0.36300
H307        H  0.10650981  0.27480592  0.76422437     0.16600
O308        O  0.11026279  0.26790603  0.85637776    -0.60300
H309        H  0.01227924  0.39673860  0.84906188     0.16600
O310        O  0.00854593  0.40331624  0.75713829    -0.60400
H311        H  0.03223917  0.42772000  0.74846014     0.43600
H312        H  0.09073195  0.23877171  0.85606754     0.43600
C313        C  0.05447873  0.18961055  0.61400307    -0.05500
C314        C  0.08673308  0.16345690  0.64119294    -0.32900
C315        C  0.08544785  0.11388507  0.64123045     0.36400
C316        C  0.05272306  0.08984832  0.61245986    -0.05800
C317        C  0.02081823  0.11595653  0.58494754    -0.32800
C318        C  0.02105771  0.16546944  0.58605494     0.36300
H319        H  0.11256372  0.18151285  0.66294954     0.16600
O320        O  0.11759402  0.08923378  0.66790746    -0.60300
H321        H  0.99515737  0.09786263  0.56303829     0.16600
O322        O  0.98987775  0.18995453  0.55810501    -0.60400
H323        H  0.95973988  0.19051300  0.57618310     0.43600
H324        H  0.10370066  0.08802150  0.70015513     0.43600
C325        C  0.04894026  0.70581244  0.60758711    -0.05500
C326        C  0.02039215  0.73141869  0.63908582    -0.32900
C327        C  0.01907615  0.78088560  0.63737175     0.36400
C328        C  0.04560877  0.80548592  0.60290664    -0.05800
C329        C  0.07186716  0.77963329  0.56943894    -0.32800
C330        C  0.07392262  0.73008898  0.57183938     0.36300
H331        H  0.00004091  0.71307573  0.66596739     0.16600
O332        O  0.99085820  0.80489980  0.66887876    -0.60300
H333        H  0.09199360  0.79790519  0.54235092     0.16600
O334        O  0.10038294  0.70572211  0.53912077    -0.60400
H335        H  0.07756813  0.69566691  0.51448166     0.43600
H336        H  0.00901398  0.80566578  0.69884749     0.43600
C337        C  0.05883928  0.55834338  0.85729054    -0.05500
C338        C  0.08983238  0.58878593  0.83319497    -0.32900
C339        C  0.08991661  0.59087839  0.78361631     0.36400
C340        C  0.05747812  0.56352740  0.75749074    -0.05800
C341        C  0.02577750  0.53388730  0.78178591    -0.32800
C342        C  0.02669360  0.53072621  0.83122773     0.36300
H343        H  0.11442808  0.61058848  0.85286086     0.16600
O344        O  0.12046712  0.62119915  0.76113545    -0.60300
H345        H  0.00060324  0.51259914  0.76231234     0.16600
O346        O  0.99539977  0.50121030  0.85379252    -0.60400
H347        H  0.96815304  0.52156166  0.86265732     0.43600
H348        H  0.15098027  0.60391018  0.75929434     0.43600
C349        C  0.81022331  0.94863804  0.38504527    -0.05500
C350        C  0.83495698  0.91427688  0.35893393    -0.32900
C351        C  0.88449113  0.91422494  0.35758675     0.36400
C352        C  0.90997867  0.94769973  0.38405916    -0.05800
C353        C  0.88540077  0.98143858  0.41101660    -0.32800
C354        C  0.83584696  0.98272009  0.41086828     0.36300
H355        H  0.81580680  0.88788012  0.33883472     0.16600
O356        O  0.90772275  0.88012710  0.33190454    -0.60300
H357        H  0.90470873  0.00734469  0.43161855     0.16600
O358        O  0.81281985  0.01625560  0.43746397    -0.60400
H359        H  0.81212540  0.04501824  0.41737414     0.43600
H360        H  0.90884926  0.89246387  0.29907543     0.43600
C361        C  0.66717019  0.94557647  0.24155123    -0.05500
C362        C  0.64274087  0.98104439  0.21675291    -0.32900
C363        C  0.64019424  0.98006423  0.16728113     0.36400
C364        C  0.66292903  0.94373453  0.14186396    -0.05800
C365        C  0.68782150  0.90859857  0.16639410    -0.32800
C366        C  0.68959796  0.90895789  0.21590159     0.36300
H367        H  0.62501926  0.00926720  0.23580985     0.16600
O368        O  0.61597931  0.01511107  0.14404549    -0.60300
H369        H  0.70555088  0.88054110  0.14707478     0.16600
O370        O  0.71367240  0.87356841  0.23876582    -0.60400
H371        H  0.74620834  0.88592176  0.24315312     0.43600
H372        H  0.64006661  0.03947961  0.13643577     0.43600
C373        C  0.29400871  0.95096830  0.38539577    -0.05500
C374        C  0.26877026  0.97900941  0.35327384    -0.32900
C375        C  0.21924835  0.97822367  0.35271551     0.36400
C376        C  0.19425034  0.94986368  0.38534399    -0.05800
C377        C  0.21956518  0.92291497  0.41844446    -0.32800
C378        C  0.26913576  0.92270534  0.41809020     0.36300
H379        H  0.28754839  0.00089991  0.32795875     0.16600
O380        O  0.19563617  0.00564339  0.32041023    -0.60300
H381        H  0.20088645  0.90124465  0.44401731     0.16600
O382        O  0.29298347  0.89605650  0.45086129    -0.60400
H383        H  0.29563457  0.86409407  0.43660996     0.43600
H384        H  0.18841858  0.03561586  0.33723215     0.43600
C385        C  0.44094474  0.95075713  0.14169184    -0.05500
C386        C  0.39855555  0.96133978  0.16589786    -0.32900
C387        C  0.39696793  0.96244217  0.21536245     0.36400
C388        C  0.43792406  0.95246473  0.24147054    -0.05800
C389        C  0.48047209  0.94279088  0.21784799    -0.32800
C390        C  0.48236999  0.94214372  0.16831669     0.36300
H391        H  0.36638554  0.96878235  0.14649654     0.16600
O392        O  0.35524005  0.97323950  0.23789534    -0.60300
H393        H  0.51234401  0.93569337  0.23790853     0.16600
O394        O  0.52485432  0.93299210  0.14652305    -0.60400
H395        H  0.52731161  0.89800735  0.14530285     0.43600
H396        H  0.33975799  0.94234314  0.24397314     0.43600
C397        C  0.43274533  0.94804526  0.75721501    -0.05500
C398        C  0.46171968  0.97968155  0.78215185    -0.32900
C399        C  0.46425039  0.97792615  0.83161788     0.36400
C400        C  0.43679292  0.94486807  0.85692502    -0.05800
C401        C  0.40710602  0.91391580  0.83212824    -0.32800
C402        C  0.40532704  0.91496779  0.78258455     0.36300
H403        H  0.48318896  0.00518344  0.76316982     0.16600
O404        O  0.49325038  0.00902984  0.85493016    -0.60300
H405        H  0.38568176  0.88843094  0.85119083     0.16600
O406        O  0.37657576  0.88367588  0.75922663    -0.60400
H407        H  0.34386769  0.89505857  0.76509255     0.43600
H408        H  0.47247142  0.03574451  0.86437806     0.43600
C409        C  0.19236925  0.94709471  0.60512500    -0.05500
C410        C  0.21643208  0.91662194  0.63596459    -0.32900
C411        C  0.26584242  0.91683655  0.63825853     0.36400
C412        C  0.29203771  0.94871429  0.61035090    -0.05800
C413        C  0.26803549  0.97965636  0.57978767    -0.32800
C414        C  0.21851199  0.97840166  0.57639787     0.36300
H415        H  0.19680991  0.89232410  0.65825432     0.16600
O416        O  0.28820328  0.88631736  0.66858303    -0.60300
H417        H  0.28775854  0.00428723  0.55796538     0.16600
O418        O  0.19593369  0.00931238  0.54659774    -0.60400
H419        H  0.19664167  0.99382036  0.51509964     0.43600
H420        H  0.28859256  0.90293600  0.69947572     0.43600
C421        C  0.80825348  0.95048294  0.61315988    -0.05500
C422        C  0.83371462  0.92155231  0.64430774    -0.32900
C423        C  0.88323994  0.92142263  0.64373599     0.36400
C424        C  0.90796492  0.94905809  0.61033103    -0.05800
C425        C  0.88242955  0.97722641  0.57843948    -0.32800
C426        C  0.83290698  0.97882778  0.58035509     0.36300
H427        H  0.81513845  0.89957505  0.66969479     0.16600
O428        O  0.90712474  0.89276275  0.67473808    -0.60300
H429        H  0.90093702  0.99870305  0.55257269     0.16600
O430        O  0.80883734  0.00671499  0.54880539    -0.60400
H431        H  0.80835448  0.03869867  0.56323963     0.43600
H432        H  0.90927592  0.91125384  0.70448698     0.43600
C433        C  0.66421528  0.94969104  0.75785635    -0.05500
C434        C  0.62701690  0.92654793  0.78121228    -0.32900
C435        C  0.62491679  0.92550931  0.83070691     0.36400
C436        C  0.66112472  0.94681835  0.85753090    -0.05800
C437        C  0.69842657  0.96986070  0.83390656    -0.32800
C438        C  0.69987444  0.97177479  0.78444270     0.36300
H439        H  0.59924763  0.90963197  0.76096564     0.16600
O440        O  0.58760974  0.90320744  0.85239982    -0.60300
H441        H  0.72638378  0.98679259  0.85386468     0.16600
O442        O  0.73660790  0.99470754  0.76241481    -0.60400
H443        H  0.75987539  0.96958373  0.75453713     0.43600
H444        H  0.59714206  0.86951714  0.85468013     0.43600
C445        C  0.44177264  0.80282586  0.00300087    -0.05500
C446        C  0.40889909  0.77849442  0.03128320    -0.32900
C447        C  0.40846952  0.72896251  0.03249270     0.36400
C448        C  0.44043317  0.70305871  0.00429594    -0.05800
C449        C  0.47299895  0.72725732  0.97568568    -0.32800
C450        C  0.47441170  0.77677525  0.97558153     0.36300
H451        H  0.38370010  0.79794444  0.05278250     0.16600
O452        O  0.37608986  0.70615627  0.06060934    -0.60300
H453        H  0.49789557  0.70768384  0.95393689     0.16600
O454        O  0.50674232  0.79934578  0.94728603    -0.60400
H455        H  0.53408945  0.80567290  0.96823047     0.43600
H456        H  0.34706700  0.70386811  0.04109178     0.43600
C457        C  0.29732119  0.55986333  0.00845142    -0.05500
C458        C  0.27416161  0.52542014  0.98142161    -0.32900
C459        C  0.22476616  0.52321119  0.98047932     0.36400
C460        C  0.19767306  0.55649193  0.00595539    -0.05800
C461        C  0.22093104  0.59105764  0.03305379    -0.32800
C462        C  0.27047715  0.59232164  0.03511826     0.36300
H463        H  0.29451100  0.49995120  0.96110413     0.16600
O464        O  0.20333825  0.48901753  0.95365379    -0.60300
H465        H  0.20064851  0.61687896  0.05296448     0.16600
O466        O  0.29229113  0.62665679  0.06148848    -0.60400
H467        H  0.29454083  0.61332685  0.09385852     0.43600
H468        H  0.19828310  0.50378597  0.92224670     0.43600
C469        C  0.67039060  0.70145624  0.99690547    -0.05500
C470        C  0.64404451  0.72566811  0.96239013    -0.32900
C471        C  0.64137419  0.77523548  0.96263887     0.36400
C472        C  0.66546219  0.80129232  0.99749523    -0.05800
C473        C  0.69270568  0.77728289  0.03118711    -0.32800
C474        C  0.69477736  0.72777412  0.03150462     0.36300
H475        H  0.62506061  0.70610986  0.93548563     0.16600
O476        O  0.61618261  0.79792567  0.92798956    -0.60300
H477        H  0.71197257  0.79700650  0.05778113     0.16600
O478        O  0.72215401  0.70550215  0.06476038    -0.60400
H479        H  0.70225703  0.70424540  0.09370386     0.43600
H480        H  0.63962106  0.80514483  0.90282492     0.43600
C481        C  0.81332555  0.55566223  0.99579139    -0.05500
C482        C  0.83847422  0.58847497  0.02306450    -0.32900
C483        C  0.88795287  0.58840184  0.02326821     0.36400
C484        C  0.91317573  0.55453880  0.99658535    -0.05800
C485        C  0.88798864  0.52065486  0.97041500    -0.32800
C486        C  0.83833279  0.52153995  0.96930046     0.36300
H487        H  0.81962514  0.61465968  0.04389884     0.16600
O488        O  0.91130955  0.62125100  0.05023859    -0.60300
H489        H  0.90682671  0.49399497  0.95018960     0.16600
O490        O  0.81453732  0.48779511  0.94387743    -0.60400
H491        H  0.81309571  0.50031067  0.91114056     0.43600
H492        H  0.91883904  0.60479504  0.08029607     0.43600
C493        C  0.29249812  0.33374598  0.00620959    -0.05500
C494        C  0.26934036  0.36043533  0.97127456    -0.32900
C495        C  0.21989324  0.36301172  0.97007290     0.36400
C496        C  0.19290518  0.33850449  0.00392828    -0.05800
C497        C  0.21588021  0.31161183  0.03869059    -0.32800
C498        C  0.26534830  0.30941396  0.04028447     0.36300
H499        H  0.28966022  0.37936958  0.94479259     0.16600
O500        O  0.19824696  0.38819362  0.93474423    -0.60300
H501        H  0.19536573  0.29215144  0.06462688     0.16600
O502        O  0.28672819  0.28262484  0.07460350    -0.60400
H503        H  0.28599367  0.24972405  0.06243541     0.43600
H504        H  0.19288020  0.36504574  0.90893016     0.43600
C505        C  0.43678169  0.08744656  0.99741822    -0.05500
C506        C  0.39945693  0.11090369  0.02063003    -0.32900
C507        C  0.39844556  0.16035205  0.02346103     0.36400
C508        C  0.43441529  0.18711220  0.00188139    -0.05800
C509        C  0.47124229  0.16391928  0.97790911    -0.32800
C510        C  0.47311737  0.11442490  0.97626591     0.36300
H511        H  0.37140505  0.09082580  0.03742712     0.16600
O512        O  0.36194670  0.18221700  0.04696162    -0.60300
H513        H  0.49906292  0.18428222  0.96104724     0.16600
O514        O  0.50974287  0.09287940  0.95260679    -0.60400
H515        H  0.53659611  0.09293733  0.97513963     0.43600
H516        H  0.33671196  0.18618827  0.02297221     0.43600
C517        C  0.90865377  0.33225297  0.99637981    -0.05500
C518        C  0.88265224  0.36437692  0.02406166    -0.32900
C519        C  0.83315587  0.36200319  0.02597629     0.36400
C520        C  0.80880736  0.32834264  0.99855094    -0.05800
C521        C  0.83463093  0.29700501  0.96991449    -0.32800
C522        C  0.88424667  0.29811573  0.96944435     0.36300
H523        H  0.90080555  0.39079439  0.04504482     0.16600
O524        O  0.80875009  0.39396321  0.05328760    -0.60300
H525        H  0.81630239  0.27106002  0.94849994     0.16600
O526        O  0.90849761  0.26683913  0.94122208    -0.60400
H527        H  0.91019481  0.23711723  0.95979270     0.43600
H528        H  0.80872301  0.38035010  0.08562855     0.43600
C529        C  0.65888955  0.08539086  0.99886312    -0.05500
C530        C  0.63056853  0.11067254  0.03094383    -0.32900
C531        C  0.63208289  0.16022113  0.03216892     0.36400
C532        C  0.66112586  0.18499589  0.00001774    -0.05800
C533        C  0.68769132  0.15964192  0.96651722    -0.32800
C534        C  0.68730993  0.11017102  0.96627501     0.36300
H535        H  0.60810786  0.09194659  0.05580395     0.16600
O536        O  0.60380972  0.18415709  0.06365841    -0.60300
H537        H  0.70963041  0.17823133  0.94109335     0.16600
O538        O  0.71355412  0.08630221  0.93300711    -0.60400
H539        H  0.74620452  0.08549006  0.94575572     0.43600
H540        H  0.62115752  0.18331296  0.09409947     0.43600
loop_ 
_geom_bond_atom_site_label_1 
_geom_bond_atom_site_label_2 
_geom_bond_distance 
_geom_bond_site_symmetry_2 
_ccdc_geom_bond_type 
O1           Ni9   1.915       .  S
O1           C11   1.281   1_556  A
O2           Ni9   1.911       .  S
O2           C12   1.280   1_556  A
O3           Ni9   1.919       .  S
O3           C13   1.282   1_556  A
O4           Ni9   1.920       .  S
O4           C14   1.281       .  A
O5          Ni10   1.918       .  S
O5           C14   1.281   1_554  A
O6          Ni10   1.913       .  S
O6           C13   1.280       .  A
O7          Ni10   1.920       .  S
O7           C12   1.282       .  A
O8          Ni10   1.918       .  S
O8           C11   1.281       .  A
Ni9         Ni10   2.391   1_556  S
C11          C41   1.466   1_554  S
C12         C532   1.473       .  S
C13          C25   1.465       .  S
C14         C520   1.475       .  S
O15         Ni23   1.912       .  S
O15          C25   1.279   1_556  A
O16         Ni23   1.915       .  S
O16          C26   1.281   1_556  A
O17         Ni23   1.911       .  S
O17          C27   1.280   1_556  A
O18         Ni23   1.915       .  S
O18          C28   1.280   1_556  A
O19         Ni24   1.921       .  S
O19          C28   1.281       .  A
O20         Ni24   1.922       .  S
O20          C27   1.282       .  A
O21         Ni24   1.917       .  S
O21          C26   1.281       .  A
O22         Ni24   1.920       .  S
O22          C25   1.282       .  A
Ni23        Ni24   2.391   1_556  S
C26         C493   1.476       .  S
C27          C53   1.467       .  S
C28         C508   1.470       .  S
O29         Ni37   1.918       .  S
O29          C39   1.281   1_556  A
O30         Ni37   1.923       .  S
O30          C40   1.282       .  A
O31         Ni37   1.915       .  S
O31          C41   1.281       .  A
O32         Ni37   1.924       .  S
O32          C42   1.282       .  A
O33         Ni38   1.916       .  S
O33          C42   1.281   1_554  A
O34         Ni38   1.918       .  S
O34          C41   1.281   1_554  A
O35         Ni38   1.914       .  S
O35          C40   1.280   1_554  A
O36         Ni38   1.915       .  S
O36          C39   1.280       .  A
Ni37        Ni38   2.390   1_556  S
C39          C55   1.466       .  S
C40         C481   1.473       .  S
C42         C469   1.481       .  S
O43         Ni51   1.914       .  S
O43          C53   1.281   1_556  A
O44         Ni51   1.919       .  S
O44          C54   1.281   1_556  A
O45         Ni51   1.913       .  S
O45          C55   1.280   1_556  A
O46         Ni51   1.914       .  S
O46          C56   1.281   1_556  A
O47         Ni52   1.917       .  S
O47          C56   1.280       .  A
O48         Ni52   1.920       .  S
O48          C55   1.282       .  A
O49         Ni52   1.915       .  S
O49          C54   1.280       .  A
O50         Ni52   1.920       .  S
O50          C53   1.281       .  A
Ni51        Ni52   2.392   1_556  S
C54         C448   1.472       .  S
C56         C457   1.470       .  S
O57         Ni65   1.918       .  S
O57          C67   1.281       .  A
O58         Ni65   1.914       .  S
O58          C68   1.280       .  A
O59         Ni65   1.917       .  S
O59          C69   1.281       .  A
O60         Ni65   1.920       .  S
O60          C70   1.281       .  A
O61         Ni66   1.914       .  S
O61          C70   1.280       .  A
O62         Ni66   1.917       .  S
O62          C69   1.281       .  A
O63         Ni66   1.919       .  S
O63          C68   1.281       .  A
O64         Ni66   1.915       .  S
O64          C67   1.280       .  A
Ni65        Ni66   2.391       .  S
C67          C83   1.466       .  S
C68         C421   1.472       .  S
C69         C109   1.467       .  S
C70         C433   1.469       .  S
O71         Ni79   1.916       .  S
O71          C81   1.281       .  A
O72         Ni79   1.923       .  S
O72          C82   1.283       .  A
O73         Ni79   1.916       .  S
O73          C83   1.280       .  A
O74         Ni79   1.921       .  S
O74          C84   1.282       .  A
O75         Ni80   1.914       .  S
O75          C84   1.281       .  A
O76         Ni80   1.918       .  S
O76          C83   1.281       .  A
O77         Ni80   1.914       .  S
O77          C82   1.280       .  A
O78         Ni80   1.915       .  S
O78          C81   1.280       .  A
Ni79        Ni80   2.391       .  S
C81          C97   1.465       .  S
C82         C397   1.477       .  S
C84         C412   1.475       .  S
O85         Ni93   1.919       .  S
O85          C95   1.282       .  A
O86         Ni93   1.919       .  S
O86          C96   1.281       .  A
O87         Ni93   1.915       .  S
O87          C97   1.280       .  A
O88         Ni93   1.913       .  S
O88          C98   1.279       .  A
O89         Ni94   1.920       .  S
O89          C98   1.281       .  A
O90         Ni94   1.916       .  S
O90          C97   1.281       .  A
O91         Ni94   1.915       .  S
O91          C96   1.280       .  A
O92         Ni94   1.912       .  S
O92          C95   1.279       .  A
Ni93        Ni94   2.393       .  S
C95         C111   1.465       .  S
C96         C373   1.472       .  S
C98         C388   1.465       .  S
O99        Ni107   1.920       .  S
O99         C109   1.282       .  A
O100       Ni107   1.923       .  S
O100        C110   1.283       .  A
O101       Ni107   1.911       .  S
O101        C111   1.279       .  A
O102       Ni107   1.915       .  S
O102        C112   1.280       .  A
O103       Ni108   1.918       .  S
O103        C112   1.282       .  A
O104       Ni108   1.920       .  S
O104        C111   1.282       .  A
O105       Ni108   1.912       .  S
O105        C110   1.280       .  A
O106       Ni108   1.915       .  S
O106        C109   1.280       .  A
Ni107      Ni108   2.390       .  S
C110        C361   1.479       .  S
C112        C349   1.476       .  S
O113       Ni121   1.910       .  S
O113        C123   1.280       .  A
O114       Ni121   1.914       .  S
O114        C124   1.280       .  A
O115       Ni121   1.918       .  S
O115        C125   1.282       .  A
O116       Ni121   1.920       .  S
O116        C126   1.282       .  A
O117       Ni122   1.921       .  S
O117        C126   1.282       .  A
O118       Ni122   1.913       .  S
O118        C125   1.280       .  A
O119       Ni122   1.922       .  S
O119        C124   1.282       .  A
O120       Ni122   1.928       .  S
O120        C123   1.283       .  A
Ni121      Ni122   2.390       .  S
C123        C139   1.469       .  S
C124        C325   1.473       .  S
C125        C151   1.465       .  S
C126        C340   1.480       .  S
O127       Ni135   1.915       .  S
O127        C137   1.280       .  A
O128       Ni135   1.916       .  S
O128        C138   1.281       .  A
O129       Ni135   1.910       .  S
O129        C139   1.280       .  A
O130       Ni135   1.914       .  S
O130        C140   1.280       .  A
O131       Ni136   1.922       .  S
O131        C140   1.282       .  A
O132       Ni136   1.928       .  S
O132        C139   1.283       .  A
O133       Ni136   1.917       .  S
O133        C138   1.280       .  A
O134       Ni136   1.921       .  S
O134        C137   1.282       .  A
Ni135      Ni136   2.391       .  S
C137        C167   1.468       .  S
C138        C301   1.471       .  S
C140        C313   1.476       .  S
O141       Ni149   1.912       .  S
O141        C151   1.279       .  A
O142       Ni149   1.916       .  S
O142        C152   1.280       .  A
O143       Ni149   1.915       .  S
O143        C153   1.281       .  A
O144       Ni149   1.915       .  S
O144        C154   1.280       .  A
O145       Ni150   1.920       .  S
O145        C154   1.281       .  A
O146       Ni150   1.914       .  S
O146        C153   1.280       .  A
O147       Ni150   1.916       .  S
O147        C152   1.280       .  A
O148       Ni150   1.920       .  S
O148        C151   1.282       .  A
Ni149      Ni150   2.392       .  S
C152        C292   1.465       .  S
C153        C165   1.463       .  S
C154        C277   1.473       .  S
O155       Ni163   1.910       .  S
O155        C165   1.279       .  A
O156       Ni163   1.918       .  S
O156        C166   1.281       .  A
O157       Ni163   1.917       .  S
O157        C167   1.281       .  A
O158       Ni163   1.921       .  S
O158        C168   1.282       .  A
O159       Ni164   1.915       .  S
O159        C168   1.280       .  A
O160       Ni164   1.918       .  S
O160        C167   1.281       .  A
O161       Ni164   1.918       .  S
O161        C166   1.281       .  A
O162       Ni164   1.918       .  S
O162        C165   1.282       .  A
Ni163      Ni164   2.392       .  S
C166        C253   1.472       .  S
C168        C268   1.473       .  S
O169       Ni177   1.924       .  S
O169        C179   1.283   1_556  A
O170       Ni177   1.922   1_655  S
O170        C180   1.283       .  A
O171       Ni177   1.918   1_554  S
O171        C181   1.281       .  A
O172       Ni177   1.917       .  S
O172        C182   1.281       .  A
O173       Ni178   1.917       .  S
O173        C182   1.281       .  A
O174       Ni178   1.915   1_554  S
O174        C181   1.281       .  A
O175       Ni178   1.916   1_655  S
O175        C180   1.281       .  A
O176       Ni178   1.907   1_554  S
O176        C179   1.278       .  A
Ni177      Ni178   2.390       .  S
C179        C496   1.469       .  S
C180        C517   1.479       .  S
C181        C265   1.474       .  S
C182        C304   1.478       .  S
O183       Ni191   1.915       .  S
O183        C193   1.280       .  A
O184       Ni191   1.916   1_656  S
O184        C194   1.282       .  A
O185       Ni191   1.908       .  S
O185        C195   1.280       .  A
O186       Ni191   1.917   1_556  S
O186        C196   1.281       .  A
O187       Ni192   1.919       .  S
O187        C196   1.282       .  A
O188       Ni192   1.923   1_554  S
O188        C195   1.283       .  A
O189       Ni192   1.918   1_655  S
O189        C194   1.281       .  A
O190       Ni192   1.918   1_554  S
O190        C193   1.282       .  A
Ni191      Ni192   2.389   1_554  S
C193        C460   1.476       .  S
C194        C484   1.477       .  S
C195        C289   1.483       .  S
C196        C337   1.475       .  S
O197       Ni205   1.919   1_655  S
O197        C207   1.281       .  A
O198       Ni205   1.913       .  S
O198        C208   1.281       .  A
O199       Ni205   1.915       .  S
O199        C209   1.281       .  A
O200       Ni205   1.915   1_545  S
O200        C210   1.281       .  A
O201       Ni206   1.919   1_545  S
O201        C210   1.282       .  A
O202       Ni206   1.920       .  S
O202        C209   1.282       .  A
O203       Ni206   1.920       .  S
O203        C208   1.282       .  A
O204       Ni206   1.913   1_655  S
O204        C207   1.280       .  A
Ni205      Ni206   2.390       .  S
C207        C352   1.470       .  S
C208        C376   1.475       .  S
C209        C280   1.477       .  S
C210        C256   1.477       .  S
O211       Ni219   1.911       .  S
O211        C221   1.280       .  A
O212       Ni219   1.912   1_655  S
O212        C222   1.280       .  A
O213       Ni219   1.909       .  S
O213        C223   1.280       .  A
O214       Ni219   1.916   1_545  S
O214        C224   1.281       .  A
O215       Ni220   1.918   1_545  S
O215        C224   1.281       .  A
O216       Ni220   1.928       .  S
O216        C223   1.283       .  A
O217       Ni220   1.920   1_655  S
O217        C222   1.282       .  A
O218       Ni220   1.922       .  S
O218        C221   1.282       .  A
Ni219      Ni220   2.390       .  S
C221        C409   1.474       .  S
C222        C424   1.474       .  S
C223        C328   1.479       .  S
C224        C316   1.473       .  S
O225       Ni233   1.913   1_545  S
O225        C235   1.280   1_556  A
O226       Ni233   1.915       .  S
O226        C236   1.280       .  A
O227       Ni233   1.914       .  S
O227        C237   1.281       .  A
O228       Ni233   1.915   1_554  S
O228        C238   1.280       .  A
O229       Ni234   1.920       .  S
O229        C238   1.281       .  A
O230       Ni234   1.918   1_556  S
O230        C237   1.282       .  A
O231       Ni234   1.924   1_556  S
O231        C236   1.282       .  A
O232       Ni234   1.919   1_545  S
O232        C235   1.281       .  A
Ni233      Ni234   2.391   1_556  S
C235        C529   1.470   1_554  S
C236        C472   1.474       .  S
C237        C436   1.478       .  S
C238        C364   1.470       .  S
O239       Ni247   1.917   1_545  S
O239        C249   1.282       .  A
O240       Ni247   1.916   1_554  S
O240        C250   1.281       .  A
O241       Ni247   1.912   1_554  S
O241        C251   1.281       .  A
O242       Ni247   1.919       .  S
O242        C252   1.281       .  A
O243       Ni248   1.916       .  S
O243        C252   1.281       .  A
O244       Ni248   1.920   1_554  S
O244        C251   1.282       .  A
O245       Ni248   1.919       .  S
O245        C250   1.282   1_556  A
O246       Ni248   1.914   1_545  S
O246        C249   1.281       .  A
Ni247      Ni248   2.388       .  S
C249        C505   1.478       .  S
C250        C445   1.477       .  S
C251        C385   1.485       .  S
C252        C400   1.474       .  S
C253        C254   1.403       .  A
C253        C258   1.406       .  A
C254        C255   1.401       .  A
C254        H259   1.084       .  S
C255        C256   1.410       .  A
C255        O260   1.371       .  S
C256        C257   1.405       .  A
C257        C258   1.400       .  A
C257        H261   1.084       .  S
C258        O262   1.372       .  S
O260        H264   0.991       .  S
O262        H263   0.992       .  S
C265        C266   1.404       .  A
C265        C270   1.409       .  A
C266        C267   1.402       .  A
C266        H271   1.084       .  S
C267        C268   1.409       .  A
C267        O272   1.372   1_455  S
C268        C269   1.401       .  A
C269        C270   1.398       .  A
C269        H273   1.084       .  S
C270        O274   1.372       .  S
O272        H276   0.991       .  S
O274        H275   0.992       .  S
C277        C278   1.402       .  A
C277        C282   1.408       .  A
C278        C279   1.400       .  A
C278        H283   1.084       .  S
C279        C280   1.411       .  A
C279        O284   1.372       .  S
C280        C281   1.404       .  A
C281        C282   1.401       .  A
C281        H285   1.084       .  S
C282        O286   1.372   1_455  S
O284        H288   0.992       .  S
O286        H287   0.992       .  S
C289        C290   1.408       .  A
C289        C294   1.413       .  A
C290        C291   1.398       .  A
C290        H295   1.083       .  S
C291        C292   1.402       .  A
C291        O296   1.372       .  S
C292        C293   1.401       .  A
C293        C294   1.401       .  A
C293        H297   1.084       .  S
C294        O298   1.372       .  S
O296        H300   0.992   1_455  S
O298        H299   0.992       .  S
C301        C302   1.401       .  A
C301        C306   1.407       .  A
C302        C303   1.401       .  A
C302        H307   1.084       .  S
C303        C304   1.411       .  A
C303        O308   1.372       .  S
C304        C305   1.404       .  A
C305        C306   1.399       .  A
C305        H309   1.084       .  S
C306        O310   1.372       .  S
O308        H312   0.992       .  S
O310        H311   0.992       .  S
C313        C314   1.404       .  A
C313        C318   1.409       .  A
C314        C315   1.401       .  A
C314        H319   1.084       .  S
C315        C316   1.408       .  A
C315        O320   1.372       .  S
C316        C317   1.402       .  A
C317        C318   1.400       .  A
C317        H321   1.083   1_455  S
C318        O322   1.372   1_455  S
O320        H324   0.992       .  S
O322        H323   0.992       .  S
C325        C326   1.400       .  A
C325        C330   1.409       .  A
C326        C327   1.399       .  A
C326        H331   1.084       .  S
C327        C328   1.411       .  A
C327        O332   1.372   1_455  S
C328        C329   1.405       .  A
C329        C330   1.403       .  A
C329        H333   1.084       .  S
C330        O334   1.372       .  S
O332        H336   0.992   1_655  S
O334        H335   0.992       .  S
C337        C338   1.403       .  A
C337        C342   1.408       .  A
C338        C339   1.402       .  A
C338        H343   1.084       .  S
C339        C340   1.410       .  A
C339        O344   1.372       .  S
C340        C341   1.405       .  A
C341        C342   1.400       .  A
C341        H345   1.083       .  S
C342        O346   1.372   1_455  S
O344        H348   0.992       .  S
O346        H347   0.992       .  S
C349        C350   1.404       .  A
C349        C354   1.410       .  A
C350        C351   1.400       .  A
C350        H355   1.084       .  S
C351        C352   1.406       .  A
C351        O356   1.372       .  S
C352        C353   1.402       .  A
C353        C354   1.400       .  A
C353        H357   1.084   1_565  S
C354        O358   1.372   1_565  S
O356        H360   0.992       .  S
O358        H359   0.992       .  S
C361        C362   1.405       .  A
C361        C366   1.412       .  A
C362        C363   1.400       .  A
C362        H367   1.084   1_565  S
C363        C364   1.406       .  A
C363        O368   1.372   1_565  S
C364        C365   1.401       .  A
C365        C366   1.400       .  A
C365        H369   1.084       .  S
C366        O370   1.372       .  S
O368        H372   0.992       .  S
O370        H371   0.992       .  S
C373        C374   1.401       .  A
C373        C378   1.408       .  A
C374        C375   1.399       .  A
C374        H379   1.084   1_565  S
C375        C376   1.410       .  A
C375        O380   1.372   1_565  S
C376        C377   1.404       .  A
C377        C378   1.400       .  A
C377        H381   1.084       .  S
C378        O382   1.372       .  S
O380        H384   0.992       .  S
O382        H383   0.992       .  S
C385        C386   1.409       .  A
C385        C390   1.414       .  A
C386        C387   1.399       .  A
C386        H391   1.083       .  S
C387        C388   1.403       .  A
C387        O392   1.372       .  S
C388        C389   1.400       .  A
C389        C390   1.401       .  A
C389        H393   1.084       .  S
C390        O394   1.372       .  S
O392        H396   0.992       .  S
O394        H395   0.992       .  S
C397        C398   1.404       .  A
C397        C402   1.409       .  A
C398        C399   1.401       .  A
C398        H403   1.084   1_565  S
C399        C400   1.409       .  A
C399        O404   1.372   1_565  S
C400        C401   1.402       .  A
C401        C402   1.401       .  A
C401        H405   1.084       .  S
C402        O406   1.372       .  S
O404        H408   0.992       .  S
O406        H407   0.992       .  S
C409        C410   1.402       .  A
C409        C414   1.409       .  A
C410        C411   1.398       .  A
C410        H415   1.084       .  S
C411        C412   1.407       .  A
C411        O416   1.371       .  S
C412        C413   1.405       .  A
C413        C414   1.403       .  A
C413        H417   1.084   1_565  S
C414        O418   1.372   1_565  S
O416        H420   0.991       .  S
O418        H419   0.992   1_545  S
C421        C422   1.401       .  A
C421        C426   1.409       .  A
C422        C423   1.399       .  A
C422        H427   1.084       .  S
C423        C424   1.410       .  A
C423        O428   1.372       .  S
C424        C425   1.403       .  A
C425        C426   1.401       .  A
C425        H429   1.084       .  S
C426        O430   1.372   1_565  S
O428        H432   0.992       .  S
O430        H431   0.992       .  S
C433        C434   1.402       .  A
C433        C438   1.405       .  A
C434        C435   1.400       .  A
C434        H439   1.084       .  S
C435        C436   1.410       .  A
C435        O440   1.372       .  S
C436        C437   1.406       .  A
C437        C438   1.399       .  A
C437        H441   1.084       .  S
C438        O442   1.372       .  S
O440        H444   0.991       .  S
O442        H443   0.992       .  S
C445        C446   1.404       .  A
C445        C450   1.409   1_554  A
C446        C447   1.400       .  A
C446        H451   1.084       .  S
C447        C448   1.407       .  A
C447        O452   1.371       .  S
C448        C449   1.402   1_554  A
C449        C450   1.400       .  A
C449        H453   1.084       .  S
C450        O454   1.370       .  S
O452        H456   0.992       .  S
O454        H455   0.991       .  S
C457        C458   1.401   1_554  A
C457        C462   1.407       .  A
C458        C459   1.397       .  A
C458        H463   1.084       .  S
C459        C460   1.408   1_556  A
C459        O464   1.371       .  S
C460        C461   1.406       .  A
C461        C462   1.402       .  A
C461        H465   1.084       .  S
C462        O466   1.371       .  S
O464        H468   0.992       .  S
O466        H467   0.992       .  S
C469        C470   1.406       .  A
C469        C474   1.410   1_556  A
C470        C471   1.403       .  A
C470        H475   1.084       .  S
C471        C472   1.407       .  A
C471        O476   1.371       .  S
C472        C473   1.401   1_556  A
C473        C474   1.400       .  A
C473        H477   1.084       .  S
C474        O478   1.372       .  S
O476        H480   0.992       .  S
O478        H479   0.992       .  S
C481        C482   1.401   1_556  A
C481        C486   1.409       .  A
C482        C483   1.398       .  A
C482        H487   1.084       .  S
C483        C484   1.410   1_554  A
C483        O488   1.372       .  S
C484        C485   1.405       .  A
C485        C486   1.403       .  A
C485        H489   1.084       .  S
C486        O490   1.372       .  S
O488        H492   0.992       .  S
O490        H491   0.991       .  S
C493        C494   1.405   1_554  A
C493        C498   1.409       .  A
C494        C495   1.399       .  A
C494        H499   1.084       .  S
C495        C496   1.405   1_556  A
C495        O500   1.371       .  S
C496        C497   1.403       .  A
C497        C498   1.400       .  A
C497        H501   1.083       .  S
C498        O502   1.372       .  S
O500        H504   0.992       .  S
O502        H503   0.992       .  S
C505        C506   1.406   1_556  A
C505        C510   1.411       .  A
C506        C507   1.400       .  A
C506        H511   1.084       .  S
C507        C508   1.405       .  A
C507        O512   1.371       .  S
C508        C509   1.402   1_554  A
C509        C510   1.400       .  A
C509        H513   1.084       .  S
C510        O514   1.372       .  S
O512        H516   0.992       .  S
O514        H515   0.992       .  S
C517        C518   1.404   1_556  A
C517        C522   1.411       .  A
C518        C519   1.401       .  A
C518        H523   1.084       .  S
C519        C520   1.408   1_554  A
C519        O524   1.372       .  S
C520        C521   1.402       .  A
C521        C522   1.402       .  A
C521        H525   1.084       .  S
C522        O526   1.372       .  S
O524        H528   0.992       .  S
O526        H527   0.992       .  S
C529        C530   1.402   1_556  A
C529        C534   1.407       .  A
C530        C531   1.401       .  A
C530        H535   1.084       .  S
C531        C532   1.409       .  A
C531        O536   1.372       .  S
C532        C533   1.402   1_554  A
C533        C534   1.398       .  A
C533        H537   1.084       .  S
C534        O538   1.372       .  S
O536        H540   0.992       .  S
O538        H539   0.992       .  S
