geometry optimzed in LAMMPS
_audit_creation_date              2020-12-01 
_audit_creation_method            'lammps2cif' 
_symmetry_space_group_name_H-M    'P1' 
_symmetry_Int_Tables_number       1 
_symmetry_cell_setting            triclinic 
loop_ 
_symmetry_equiv_pos_as_xyz 
  x,y,z 
_cell_length_a                    34.39395584 
_cell_length_b                    34.43873942934157 
_cell_length_c                    34.37303893249793 
_cell_angle_alpha                 90.04712529357727 
_cell_angle_beta                  89.63658767932114 
_cell_angle_gamma                 90.01023376019722 
loop_ 
_atom_site_label 
_atom_site_type_symbol 
_atom_site_fract_x 
_atom_site_fract_y 
_atom_site_fract_z 
_atom_site_charge 
O1          O  0.24968885  0.96737524  0.12190855    -0.85600
O2          O  0.22207788  0.93911329  0.19118751    -0.82600
C3          C  0.21317171  0.93615692  0.22658759     0.97900
O4          O  0.22860880  0.95903277  0.25114965    -0.82700
O5          O  0.30818099  0.94784817  0.24256709    -0.85300
C6          C  0.34073482  0.94618723  0.22552019     1.02400
O7          O  0.35047641  0.97194879  0.20093484    -0.78100
O8          O  0.30824135  0.95179330  0.13839846    -0.78300
C9          C  0.27710607  0.94303255  0.12166298     1.02300
O10         O  0.23252822  0.04435701  0.14975078    -0.85600
O11         O  0.19738516  0.01515606  0.21332504    -0.82700
C12         C  0.20756489  0.04027945  0.23798150     0.97900
O13         O  0.24214363  0.04172089  0.25005006    -0.82700
O14         O  0.32263993  0.03003508  0.24965627    -0.85300
C15         C  0.33647476  0.05495151  0.22606337     1.02400
O16         O  0.32918397  0.05237671  0.19031700    -0.78100
O17         O  0.29036461  0.03637065  0.12403452    -0.78300
C18         C  0.25995925  0.05702287  0.12903788     1.02300
Cr19       Cr  0.22863463  0.99170349  0.17032224     1.93700
Cr20       Cr  0.27558203  0.99480808  0.24484369     1.93200
Cr21       Cr  0.31646537  0.00269567  0.16499472     1.39100
O22         O  0.27376661  0.99679999  0.19351490    -1.23300
O23         O  0.76978202  0.04643632  0.13882131    -0.85600
O24         O  0.81594535  0.01858910  0.19724220    -0.82600
C25         C  0.81121226  0.04006430  0.22669294     0.97900
O26         O  0.77794301  0.04306204  0.24241244    -0.82700
O27         O  0.69647447  0.03588735  0.24893717    -0.85300
C28         C  0.68040948  0.05924106  0.22506805     1.02400
O29         O  0.68398906  0.05400608  0.18905085    -0.78100
O30         O  0.71180909  0.03026771  0.11926237    -0.78300
C31         C  0.73958485  0.05440289  0.11992173     1.02300
O32         O  0.75186129  0.96654753  0.11624756    -0.85600
O33         O  0.79201141  0.94227053  0.18106513    -0.82700
C34         C  0.80230404  0.93921436  0.21615030     0.97900
O35         O  0.78694816  0.96067019  0.24216383    -0.82700
O36         O  0.70691843  0.95131204  0.24478382    -0.85300
C37         C  0.67224421  0.95158983  0.23313662     1.02400
O38         O  0.66112043  0.97741499  0.20971113    -0.78100
O39         O  0.69712665  0.95002465  0.14423287    -0.78300
C40         C  0.72378647  0.94298684  0.12013808     1.02300
Cr41       Cr  0.77931210  0.99393778  0.16001888     1.93700
Cr42       Cr  0.74135867  0.99777143  0.24101012     1.93200
Cr43       Cr  0.69187259  0.00242198  0.16703925     1.39100
O44         O  0.73770398  0.99814916  0.18975516    -1.23300
O45         O  0.15337062  0.23425229  0.93975865    -0.85600
O46         O  0.21201117  0.18966177  0.96864964    -0.82600
C47         C  0.24135532  0.19553938  0.94752236     0.97900
O48         O  0.25640179  0.22921093  0.94615047    -0.82700
O49         O  0.25825401  0.31137092  0.95675422    -0.85300
C50         C  0.23406288  0.32814303  0.93438436     1.02400
O51         O  0.19806068  0.32342583  0.93888703    -0.78100
O52         O  0.12941821  0.29015876  0.95793035    -0.78300
C53         C  0.13263261  0.26352011  0.93267102     1.02300
O54         O  0.12648887  0.24758492  0.01848037    -0.85600
O55         O  0.19247551  0.20968652  0.04495670    -0.82700
C56         C  0.22813233  0.20185744  0.04957092     0.97900
O57         O  0.25387724  0.21857672  0.02877928    -0.82700
O58         O  0.25246317  0.29841489  0.04045999    -0.85300
C59         C  0.23725933  0.33175539  0.04283492     1.02400
O60         O  0.21345735  0.34263925  0.01734014    -0.78100
O61         O  0.14959782  0.30167733  0.04068908    -0.78300
C62         C  0.12883337  0.27206412  0.04570753     1.02300
Cr63       Cr  0.17265756  0.22346031  0.99280240     1.93700
Cr64       Cr  0.25154011  0.26495641  0.99279534     1.93200
Cr65       Cr  0.17432000  0.31113135  0.98904266     1.39100
O66         O  0.20006332  0.26648242  0.99140989    -1.23300
O67         O  0.15406845  0.76670997  0.04414847    -0.85600
O68         O  0.21421442  0.81135604  0.01934111    -0.82600
C69         C  0.24150272  0.80133162  0.04143663     0.97900
O70         O  0.25742779  0.76831999  0.03756428    -0.82700
O71         O  0.25869816  0.68828156  0.01966935    -0.85300
C72         C  0.23482425  0.67131684  0.04248645     1.02400
O73         O  0.19873902  0.67689306  0.03965855    -0.78100
O74         O  0.12989254  0.71207166  0.02329175    -0.78300
C75         C  0.13337084  0.73714709  0.05002710     1.02300
O76         O  0.12817913  0.75958654  0.96392155    -0.85600
O77         O  0.19432834  0.79725166  0.94108835    -0.82700
C78         C  0.22992219  0.80466028  0.93623439     0.97900
O79         O  0.25554270  0.78706913  0.95607889    -0.82700
O80         O  0.25222159  0.70803731  0.93746374    -0.85300
C81         C  0.23668491  0.67490599  0.93390231     1.02400
O82         O  0.21368020  0.66274870  0.95985116    -0.78100
O83         O  0.15057888  0.70571170  0.93998733    -0.78300
C84         C  0.13115369  0.73630765  0.93562095     1.02300
Cr85       Cr  0.17425801  0.78056883  0.99208598     1.93700
Cr86       Cr  0.25236382  0.73760624  0.98785029     1.93200
Cr87       Cr  0.17476024  0.69260287  0.99059137     1.39100
O88         O  0.20090566  0.73696553  0.99039179    -1.23300
O89         O  0.05479464  0.15807826  0.76250099    -0.85600
O90         O  0.02538152  0.22000967  0.80124832    -0.82600
C91         C  0.04870716  0.24672847  0.79199925     0.97900
O92         O  0.05024050  0.25930677  0.75740614    -0.82700
O93         O  0.03877143  0.25868067  0.67641653    -0.85300
C94         C  0.06276291  0.23463390  0.66158590     1.02400
O95         O  0.06010480  0.19898731  0.66900253    -0.78100
O96         O  0.04138723  0.13240384  0.70608561    -0.78300
C97         C  0.06508250  0.13784164  0.73373202     1.02300
O98         O  0.97669668  0.13051657  0.74740066    -0.85600
O99         O  0.94946419  0.19909629  0.77762072    -0.82700
C100        C  0.94753296  0.23403696  0.78822714     0.97900
O101        O  0.96808452  0.25944260  0.77092106    -0.82700
O102        O  0.95591898  0.25281907  0.69062470    -0.85300
C103        C  0.95581173  0.23732686  0.65730110     1.02400
O104        O  0.98145947  0.21273696  0.64784388    -0.78100
O105        O  0.95841608  0.15016557  0.69054221    -0.78300
C106        C  0.95131941  0.13119340  0.72100503     1.02300
Cr107      Cr  0.00175230  0.17817749  0.76918952     1.93700
Cr108      Cr  0.00330379  0.25408714  0.72351120     1.93200
Cr109      Cr  0.00989278  0.17515133  0.68144865     1.39100
O110        O  0.00535982  0.20280823  0.72464014    -1.23300
O111        O  0.97863567  0.11541421  0.24070978    -0.85600
O112        O  0.95059665  0.18193191  0.20562508    -0.82600
C113        C  0.94706896  0.21711281  0.19593334     0.97900
O114        O  0.96867179  0.24279700  0.21114599    -0.82700
O115        O  0.95794332  0.24154623  0.29105847    -0.85300
C116        C  0.95644665  0.22676046  0.32466800     1.02400
O117        O  0.98275560  0.20379563  0.33558373    -0.78100
O118        O  0.96016324  0.13917640  0.29636441    -0.78300
C119        C  0.95390320  0.11707287  0.26794524     1.02300
O120        O  0.05634971  0.14259626  0.22323531    -0.85600
O121        O  0.02621628  0.20185305  0.18136548    -0.82700
C122        C  0.05005836  0.22879702  0.18794357     0.97900
O123        O  0.05112011  0.24472394  0.22115937    -0.82700
O124        O  0.04133970  0.24911990  0.30239233    -0.85300
C125        C  0.06545152  0.22630812  0.31852803     1.02400
O126        O  0.06184973  0.19004115  0.31470948    -0.78100
O127        O  0.04309381  0.12075414  0.28145257    -0.78300
C128        C  0.06639651  0.12381344  0.25287029     1.02300
Cr129      Cr  0.00320414  0.16208032  0.21594225     1.93700
Cr130      Cr  0.00492163  0.24095150  0.25698380     1.93200
Cr131      Cr  0.01157183  0.16490434  0.30374526     1.39100
O132        O  0.00694084  0.18967210  0.25892480    -1.23300
O133        O  0.05449668  0.83891753  0.21621160    -0.85600
O134        O  0.02360049  0.77527075  0.18013230    -0.82600
C135        C  0.04809029  0.75039660  0.19073612     0.97900
O136        O  0.04962874  0.73999465  0.22596342    -0.82700
O137        O  0.03717273  0.74326132  0.30668138    -0.85300
C138        C  0.05932697  0.76831022  0.32221423     1.02400
O139        O  0.05524921  0.80389816  0.31491582    -0.78100
O140        O  0.04062542  0.86758445  0.27148944    -0.78300
C141        C  0.06440775  0.86096407  0.24375104     1.02300
O142        O  0.97753047  0.86884948  0.22835742    -0.85600
O143        O  0.94848828  0.79927377  0.20290339    -0.82700
C144        C  0.94405478  0.76342134  0.19717930     0.97900
O145        O  0.96625872  0.73897703  0.21367805    -0.82700
O146        O  0.95491912  0.74704193  0.29301078    -0.85300
C147        C  0.95119918  0.76628723  0.32407308     1.02400
O148        O  0.97437957  0.79347175  0.33243763    -0.78100
O149        O  0.95590105  0.85237978  0.28491981    -0.78300
C150        C  0.95034967  0.86905758  0.25300543     1.02300
Cr151      Cr  0.00122517  0.81930725  0.21015265     1.93700
Cr152      Cr  0.00222319  0.74597300  0.25979040     1.93200
Cr153      Cr  0.00632810  0.82753202  0.29785948     1.39100
O154        O  0.00359504  0.79721807  0.25629681    -1.23300
O155        O  0.87690037  0.76326720  0.96455579    -0.85600
O156        O  0.80921658  0.79252312  0.93486031    -0.82600
C157        C  0.77350603  0.79885678  0.92989964     0.97900
O158        O  0.74823817  0.78261376  0.95168903    -0.82700
O159        O  0.75487409  0.70313190  0.94233634    -0.85300
C160        C  0.77219034  0.67087912  0.94060622     1.02400
O161        O  0.79729728  0.66208766  0.96574638    -0.78100
O162        O  0.85781836  0.70739123  0.94379795    -0.78300
C163        C  0.87587177  0.73847274  0.93760584     1.02300
O164        O  0.84666160  0.77814253  0.04126422    -0.85600
O165        O  0.78525403  0.81599188  0.00952269    -0.82700
C166        C  0.75733918  0.80751026  0.03180221     0.97900
O167        O  0.74608674  0.77263046  0.03480987    -0.82700
O168        O  0.74864156  0.69104565  0.02561656    -0.85300
C169        C  0.77307598  0.67565745  0.04867549     1.02400
O170        O  0.80886746  0.68257647  0.04509086    -0.78100
O171        O  0.87415585  0.72254170  0.02776888    -0.78300
C172        C  0.86727035  0.74987571  0.05168600     1.02300
Cr173      Cr  0.82823837  0.78436129  0.98785613     1.93700
Cr174      Cr  0.75303931  0.73715364  0.98893340     1.93200
Cr175      Cr  0.83295065  0.69675614  0.99520088     1.39100
O176        O  0.80426093  0.73927310  0.99111450    -1.23300
O177        O  0.24722340  0.03543117  0.85595918    -0.85600
O178        O  0.22096674  0.06261145  0.78520949    -0.82600
C179        C  0.21339454  0.06469533  0.74941682     0.97900
O180        O  0.22857563  0.04056635  0.72566843    -0.82700
O181        O  0.30837544  0.04785358  0.73214049    -0.85300
C182        C  0.34014452  0.05015172  0.75019995     1.02400
O183        O  0.34866561  0.02501824  0.77554311    -0.78100
O184        O  0.30526996  0.05082857  0.83633681    -0.78300
C185        C  0.27577875  0.05843866  0.85666285     1.02300
O186        O  0.22867276  0.95806541  0.83007120    -0.85600
O187        O  0.19362636  0.98761443  0.76625631    -0.82700
C188        C  0.20135295  0.96213639  0.74103250     0.97900
O189        O  0.23606533  0.95724889  0.72949909    -0.82700
O190        O  0.31800149  0.96369690  0.73014929    -0.85300
C191        C  0.33163329  0.94079630  0.75580288     1.02400
O192        O  0.32452096  0.94677215  0.79125244    -0.78100
O193        O  0.28558216  0.96878223  0.85599687    -0.78300
C194        C  0.25591292  0.94717907  0.85178081     1.02300
Cr195      Cr  0.22590312  0.01046733  0.80797119     1.93700
Cr196      Cr  0.27303069  0.00227784  0.73286722     1.93200
Cr197      Cr  0.31292553  0.99832185  0.81293003     1.39100
O198        O  0.27078061  0.00328656  0.78426928    -1.23300
O199        O  0.95740796  0.86036313  0.75698893    -0.85600
O200        O  0.98226768  0.80132988  0.80155239    -0.82600
C201        C  0.95587715  0.77690938  0.79479627     0.97900
O202        O  0.95486193  0.75964902  0.76224364    -0.82700
O203        O  0.96650499  0.75139929  0.68172994    -0.85300
C204        C  0.94413679  0.77562240  0.66504605     1.02400
O205        O  0.94992266  0.81146019  0.66867753    -0.78100
O206        O  0.97358076  0.87972764  0.69875560    -0.78300
C207        C  0.94889759  0.87788022  0.72617943     1.02300
O208        O  0.03754261  0.88174958  0.74007304    -0.85600
O209        O  0.05980544  0.81514866  0.77867288    -0.82700
C210        C  0.06068701  0.78023735  0.78975763     0.97900
O211        O  0.03763955  0.75544142  0.77494691    -0.82700
O212        O  0.05019281  0.75314640  0.69517469    -0.85300
C213        C  0.05287523  0.76674765  0.66113802     1.02400
O214        O  0.02745378  0.79011829  0.64895275    -0.78100
O215        O  0.05435308  0.85440432  0.68529183    -0.78300
C216        C  0.06159381  0.87763533  0.71241536     1.02300
Cr217      Cr  0.00899856  0.83808971  0.76627622     1.93700
Cr218      Cr  0.00243157  0.75822022  0.72796526     1.93200
Cr219      Cr  0.00166979  0.83256100  0.67860732     1.39100
O220        O  0.00428350  0.80929840  0.72428634    -1.23300
O221        O  0.84417337  0.21558455  0.03875401    -0.85600
O222        O  0.78076912  0.18277447  0.00560440    -0.82600
C223        C  0.75579091  0.19261301  0.03071308     0.97900
O224        O  0.74532795  0.22773237  0.03358098    -0.82700
O225        O  0.74915767  0.30894961  0.02537688    -0.85300
C226        C  0.77361197  0.32211994  0.04972752     1.02400
O227        O  0.80890071  0.31332854  0.04673320    -0.78100
O228        O  0.87308225  0.27162082  0.03027537    -0.78300
C229        C  0.86649862  0.24169477  0.05105500     1.02300
O230        O  0.87595948  0.23315804  0.96370340    -0.85600
O231        O  0.80661973  0.20999400  0.93176347    -0.82700
C232        C  0.77117788  0.20190752  0.92778128     0.97900
O233        O  0.74602095  0.21834563  0.94964957    -0.82700
O234        O  0.75574030  0.29861025  0.94241018    -0.85300
C235        C  0.77482197  0.32996831  0.94167507     1.02400
O236        O  0.80059606  0.33708523  0.96685876    -0.78100
O237        O  0.86085627  0.29164578  0.94697119    -0.78300
C238        C  0.87846000  0.26062916  0.93964275     1.02300
Cr239      Cr  0.82561080  0.21358290  0.98517672     1.93700
Cr240      Cr  0.75254803  0.26338668  0.98794461     1.93200
Cr241      Cr  0.83395387  0.30042881  0.99722366     1.39100
O242        O  0.80374343  0.25942885  0.99040147    -1.23300
O243        O  0.77922715  0.95240464  0.82669741    -0.85600
O244        O  0.81579966  0.98122100  0.76320713    -0.82600
C245        C  0.80609879  0.95664669  0.73790741     0.97900
O246        O  0.77144277  0.95441570  0.72626130    -0.82700
O247        O  0.69093527  0.96347518  0.72862964    -0.85300
C248        C  0.67781934  0.93998070  0.75431273     1.02400
O249        O  0.68530349  0.94520716  0.78961317    -0.78100
O250        O  0.72329780  0.96555210  0.85425071    -0.78300
C251        C  0.75172302  0.94250641  0.84882669     1.02300
O252        O  0.76267105  0.02921091  0.85363376    -0.85600
O253        O  0.79075447  0.05685739  0.78414806    -0.82700
C254        C  0.80094815  0.05875963  0.74900158     0.97900
O255        O  0.78404140  0.03717924  0.72409410    -0.82700
O256        O  0.70354659  0.04759677  0.73220469    -0.85300
C257        C  0.67075075  0.04814003  0.74882703     1.02400
O258        O  0.66180434  0.02287839  0.77396713    -0.78100
O259        O  0.70608182  0.04836198  0.83473704    -0.78300
C260        C  0.73700020  0.05526440  0.85281082     1.02300
Cr261      Cr  0.78423084  0.00476350  0.80568563     1.93700
Cr262      Cr  0.73716552  0.00078585  0.73110394     1.93200
Cr263      Cr  0.69700203  0.99602063  0.81148057     1.39100
O264        O  0.73934327  0.00003744  0.78238765    -1.23300
O265        O  0.55518791  0.27192877  0.34695525    -0.85600
O266        O  0.52596544  0.31191674  0.28590037    -0.82600
C267        C  0.54955776  0.30269292  0.25929177     0.97900
O268        O  0.55121140  0.26815936  0.24690802    -0.82700
O269        O  0.54045941  0.18751003  0.24609700    -0.85300
C270        C  0.56363876  0.17228604  0.27057876     1.02400
O271        O  0.55887501  0.17791174  0.30631806    -0.78100
O272        O  0.54217849  0.21522848  0.37238274    -0.78300
C273        C  0.56569277  0.24322873  0.36690962     1.02300
O274        O  0.47793761  0.25738135  0.37575742    -0.85600
O275        O  0.44997998  0.28934094  0.30758108    -0.82700
C276        C  0.44691350  0.29821402  0.27208663     0.97900
O277        O  0.46838676  0.28126534  0.24690237    -0.82700
O278        O  0.45671080  0.20131089  0.25143299    -0.85300
C279        C  0.45388893  0.16869784  0.26800022     1.02400
O280        O  0.47891381  0.15846915  0.29282798    -0.78100
O281        O  0.45847864  0.20109251  0.35518489    -0.78300
C282        C  0.45292903  0.23056945  0.37577468     1.02300
Cr283      Cr  0.50240405  0.27938100  0.32769598     1.93700
Cr284      Cr  0.50423603  0.23419795  0.25134192     1.93200
Cr285      Cr  0.50916348  0.19138420  0.32996751     1.39100
O286        O  0.50542637  0.23484362  0.30265393    -1.23300
O287        O  0.37776921  0.53849011  0.24864697    -0.85600
O288        O  0.30600031  0.56501935  0.27327997    -0.82600
C289        C  0.27068795  0.56566307  0.28312137     0.97900
O290        O  0.24719902  0.54243996  0.26686364    -0.82700
O291        O  0.25773813  0.55211387  0.18724302    -0.85300
C292        C  0.27517043  0.55300088  0.15483115     1.02400
O293        O  0.30015569  0.52712468  0.14625823    -0.78100
O294        O  0.36234131  0.54835520  0.18812690    -0.78300
C295        C  0.38061050  0.55839926  0.21793489     1.02300
O296        O  0.35208672  0.46123601  0.26857622    -0.85600
O297        O  0.28657568  0.48899273  0.30046366    -0.82700
C298        C  0.26185711  0.46361094  0.29097791     0.97900
O299        O  0.25074956  0.46021655  0.25610685    -0.82700
O300        O  0.25197064  0.46999594  0.17470911    -0.85300
C301        C  0.27587618  0.44487577  0.16200893     1.02400
O302        O  0.31112697  0.44714053  0.17104098    -0.78100
O303        O  0.37668573  0.46522212  0.20985365    -0.78300
C304        C  0.37258196  0.44692854  0.24185052     1.02300
Cr305      Cr  0.32932860  0.51308538  0.26931451     1.93700
Cr306      Cr  0.25555822  0.50609401  0.22108641     1.93200
Cr307      Cr  0.33581316  0.49752729  0.18199709     1.39100
O308        O  0.30692395  0.50515516  0.22403225    -1.23300
O309        O  0.25736928  0.38898174  0.51906647    -0.85600
O310        O  0.29322936  0.32198511  0.54646146    -0.82600
C311        C  0.30214011  0.28645893  0.54937316     0.97900
O312        O  0.28567323  0.26128202  0.52799758    -0.82700
O313        O  0.20588236  0.26192840  0.53807528    -0.85300
C314        C  0.17263122  0.27710164  0.54085678     1.02400
O315        O  0.16193979  0.30244357  0.51672605    -0.78100
O316        O  0.20340273  0.36526584  0.54042256    -0.78300
C317        C  0.23357191  0.38490052  0.54660111     1.02300
O318        O  0.27313972  0.36277247  0.44149934    -0.85600
O319        O  0.31571737  0.30386554  0.47094471    -0.82700
C320        C  0.31020613  0.27496502  0.44943194     0.97900
O321        O  0.27635054  0.26110259  0.44566231    -0.82700
O322        O  0.19478344  0.25832827  0.45437981    -0.85300
C323        C  0.17735058  0.28215175  0.43215007     1.02400
O324        O  0.18015052  0.31827051  0.43776446    -0.78100
O325        O  0.21592260  0.38595635  0.45715543    -0.78300
C326        C  0.24356216  0.38232447  0.43280552     1.02300
Cr327      Cr  0.28168953  0.34294575  0.49423908     1.93700
Cr328      Cr  0.24000188  0.26443690  0.49138929     1.93200
Cr329      Cr  0.19365589  0.34154873  0.48833453     1.39100
O330        O  0.23836546  0.31578552  0.49088520    -1.23300
O331        O  0.25697668  0.62067958  0.46292708    -0.85600
O332        O  0.29026406  0.68875107  0.43741994    -0.82600
C333        C  0.29821650  0.72437170  0.43455332     0.97900
O334        O  0.28157649  0.74894436  0.45655499    -0.82700
O335        O  0.20218038  0.74467852  0.44508177    -0.85300
C336        C  0.16920857  0.72879616  0.44286511     1.02400
O337        O  0.15872999  0.70389664  0.46776276    -0.78100
O338        O  0.20142545  0.64224971  0.44337000    -0.78300
C339        C  0.23224513  0.62388534  0.43626027     1.02300
O340        O  0.27116775  0.64533109  0.54153607    -0.85600
O341        O  0.31186666  0.70724127  0.51378336    -0.82700
C342        C  0.30416004  0.73516193  0.53620426     0.97900
O343        O  0.26976089  0.74802743  0.53886858    -0.82700
O344        O  0.18871745  0.74826594  0.52799790    -0.85300
C345        C  0.17298537  0.72390233  0.55096115     1.02400
O346        O  0.17847910  0.68793889  0.54673899    -0.78100
O347        O  0.21481932  0.62050919  0.52554205    -0.78300
C348        C  0.24302531  0.62317480  0.54897706     1.02300
Cr349      Cr  0.27946809  0.66693380  0.48923966     1.93700
Cr350      Cr  0.23514016  0.74377825  0.49226347     1.93200
Cr351      Cr  0.19152802  0.66526009  0.49566350     1.39100
O352        O  0.23532348  0.69239980  0.49281790    -1.23300
O353        O  0.38085541  0.46046701  0.73983609    -0.85600
O354        O  0.31004410  0.43491348  0.71136972    -0.82600
C355        C  0.27501273  0.43549989  0.70077835     0.97900
O356        O  0.25157054  0.45958061  0.71603314    -0.82700
O357        O  0.25637957  0.45346596  0.79583618    -0.85300
C358        C  0.27312322  0.45239100  0.82838499     1.02400
O359        O  0.29730132  0.47850240  0.83761154    -0.78100
O360        O  0.36019730  0.45182203  0.79925218    -0.78300
C361        C  0.38048084  0.44085311  0.77086544     1.02300
O362        O  0.35803765  0.53773102  0.71630845    -0.85600
O363        O  0.29486361  0.50993645  0.68068250    -0.82700
C364        C  0.27008253  0.53614301  0.68759088     0.97900
O365        O  0.25755912  0.54182095  0.72188735    -0.82700
O366        O  0.25392460  0.53699307  0.80364193    -0.85300
C367        C  0.27840962  0.56146602  0.81635720     1.02400
O368        O  0.31406965  0.55632220  0.81027419    -0.78100
O369        O  0.38000936  0.53218672  0.77546936    -0.78300
C370        C  0.37578357  0.55202794  0.74468403     1.02300
Cr371      Cr  0.33467509  0.48624518  0.71536925     1.93700
Cr372      Cr  0.25834007  0.49790462  0.75978581     1.93200
Cr373      Cr  0.33627262  0.50412166  0.80252047     1.39100
O374        O  0.30965939  0.49631621  0.75928969    -1.23300
O375        O  0.45758650  0.72114425  0.33665250    -0.85600
O376        O  0.49311863  0.68667990  0.27555088    -0.82600
C377        C  0.47096363  0.69475236  0.24774307     0.97900
O378        O  0.46783129  0.72974661  0.23639540    -0.82700
O379        O  0.47586956  0.81201910  0.24084196    -0.85300
C380        C  0.45087131  0.82582148  0.26447106     1.02400
O381        O  0.45213971  0.81771629  0.30013137    -0.78100
O382        O  0.46660937  0.77703800  0.36551830    -0.78300
C383        C  0.44506734  0.74794278  0.35816175     1.02300
O384        O  0.53100018  0.73831929  0.37012601    -0.85600
O385        O  0.56583370  0.71255454  0.30204139    -0.82700
C386        C  0.57081301  0.70495669  0.26648590     0.97900
O387        O  0.55047887  0.72217358  0.24109066    -0.82700
O388        O  0.55869086  0.80150023  0.25079785    -0.85300
C389        C  0.55811996  0.83354789  0.26869616     1.02400
O390        O  0.53116333  0.84119136  0.29264810    -0.78100
O391        O  0.55067784  0.79546368  0.35379709    -0.78300
C392        C  0.55668785  0.76421725  0.37155079     1.02300
Cr393      Cr  0.51174782  0.71784798  0.31982891     1.93700
Cr394      Cr  0.51274292  0.76658406  0.24581851     1.93200
Cr395      Cr  0.50073412  0.80485597  0.32637653     1.39100
O396        O  0.50785510  0.76325673  0.29690159    -1.23300
O397        O  0.65681343  0.45034680  0.26191319    -0.85600
O398        O  0.72106844  0.47642156  0.29962637    -0.82600
C399        C  0.74803132  0.45398707  0.28893213     0.97900
O400        O  0.75888737  0.45280512  0.25376383    -0.82700
O401        O  0.75528815  0.46523726  0.17353624    -0.85300
C402        C  0.72954360  0.44257459  0.15957822     1.02400
O403        O  0.69417148  0.44790857  0.16701464    -0.78100
O404        O  0.62940346  0.46708384  0.20717377    -0.78300
C405        C  0.63433479  0.44253694  0.23424887     1.02300
O406        O  0.63151366  0.52925230  0.25092268    -0.85600
O407        O  0.70134769  0.55346783  0.28049577    -0.82700
C408        C  0.73704694  0.55499577  0.28830561     0.97900
O409        O  0.76123459  0.53468652  0.26887653    -0.82700
O410        O  0.75267967  0.54865509  0.18953065    -0.85300
C411        C  0.73534538  0.55206821  0.15747262     1.02400
O412        O  0.70997311  0.52733356  0.14770792    -0.78100
O413        O  0.65003105  0.54940304  0.19395701    -0.78300
C414        C  0.63270939  0.55566924  0.22554585     1.02300
Cr415      Cr  0.67889941  0.50219755  0.27005898     1.93700
Cr416      Cr  0.75339340  0.50044021  0.22111215     1.93200
Cr417      Cr  0.67274705  0.49814797  0.18202075     1.39100
O418        O  0.70203099  0.49994798  0.22433009    -1.23300
O419        O  0.73674383  0.64630201  0.54381161    -0.85600
O420        O  0.69329551  0.70599522  0.51556196    -0.82600
C421        C  0.70114430  0.73409447  0.53749211     0.97900
O422        O  0.73516896  0.74808406  0.53850657    -0.82700
O423        O  0.81596813  0.75042109  0.52678238    -0.85300
C424        C  0.83201985  0.72646214  0.54982493     1.02400
O425        O  0.82795712  0.69043243  0.54496544    -0.78100
O426        O  0.79308531  0.62244781  0.52649690    -0.78300
C427        C  0.76610558  0.62596852  0.55155326     1.02300
O428        O  0.75013118  0.61960653  0.46523411    -0.85600
O429        O  0.71450856  0.68657136  0.43926535    -0.82700
C430        C  0.70497212  0.72187757  0.43683439     0.97900
O431        O  0.72271348  0.74746187  0.45658134    -0.82700
O432        O  0.80264144  0.74571322  0.44344901    -0.85300
C433        C  0.83575783  0.73006275  0.44086642     1.02400
O434        O  0.84643031  0.70546982  0.46577909    -0.78100
O435        O  0.80471528  0.64221182  0.44338784    -0.78300
C436        C  0.77501453  0.62157595  0.43819999     1.02300
Cr437      Cr  0.72687040  0.66611992  0.49108684     1.93700
Cr438      Cr  0.76964045  0.74424372  0.49133775     1.93200
Cr439      Cr  0.81481098  0.66676738  0.49485432     1.39100
O440        O  0.77047774  0.69285775  0.49260594    -1.23300
O441        O  0.66189573  0.54410514  0.71879434    -0.85600
O442        O  0.72720791  0.51783874  0.68299030    -0.82600
C443        C  0.75183627  0.54286250  0.69317114     0.97900
O444        O  0.76363685  0.54456890  0.72791905    -0.82700
O445        O  0.76211732  0.53277907  0.80875740    -0.85300
C446        C  0.73697198  0.55613667  0.82265531     1.02400
O447        O  0.70159606  0.55220473  0.81457810    -0.78100
O448        O  0.63620544  0.53248404  0.77605185    -0.78300
C449        C  0.63947089  0.55402162  0.74615270     1.02300
O450        O  0.63825620  0.46590840  0.73432499    -0.85600
O451        O  0.70888122  0.44108155  0.70682939    -0.82700
C452        C  0.74413524  0.44047385  0.69701704     0.97900
O453        O  0.76807660  0.46246215  0.71445000    -0.82700
O454        O  0.75994391  0.45024111  0.79478805    -0.85300
C455        C  0.74231104  0.44825823  0.82709742     1.02400
O456        O  0.71635646  0.47288928  0.83602564    -0.78100
O457        O  0.65569650  0.44988727  0.79264964    -0.78300
C458        C  0.63917416  0.44132997  0.76138733     1.02300
Cr459      Cr  0.68541736  0.49246183  0.71392576     1.93700
Cr460      Cr  0.75983906  0.49745033  0.76165162     1.93200
Cr461      Cr  0.67922772  0.50156216  0.80171926     1.39100
O462        O  0.70835665  0.49755818  0.75923221    -1.23300
O463        O  0.54741796  0.72590492  0.63504018    -0.85600
O464        O  0.52306502  0.68542560  0.69787549    -0.82600
C465        C  0.54953901  0.69363026  0.72172370     0.97900
O466        O  0.55135466  0.72722828  0.73675956    -0.82700
O467        O  0.54184207  0.80840096  0.73936800    -0.85300
C468        C  0.56405105  0.82298257  0.71338870     1.02400
O469        O  0.55698577  0.81771449  0.67799809    -0.78100
O470        O  0.53238776  0.78311075  0.61223226    -0.78300
C471        C  0.55604784  0.75498896  0.61469814     1.02300
O472        O  0.46738442  0.74246237  0.61468076    -0.85600
O473        O  0.44554813  0.70994674  0.68469402    -0.82700
C474        C  0.44496862  0.70119404  0.72033186     0.97900
O475        O  0.46906020  0.71661853  0.74352406    -0.82700
O476        O  0.45752626  0.79621717  0.74071495    -0.85300
C477        C  0.45395738  0.82864512  0.72388705     1.02400
O478        O  0.47917917  0.83942284  0.69928374    -0.78100
O479        O  0.45178274  0.79904325  0.63830330    -0.78300
C480        C  0.44390688  0.77059882  0.61704879     1.02300
Cr481      Cr  0.49615863  0.71907412  0.65954321     1.93700
Cr482      Cr  0.50480298  0.76257635  0.73668090     1.93200
Cr483      Cr  0.50482148  0.80666285  0.65868007     1.39100
O484        O  0.50223966  0.76278244  0.68529497    -1.23300
O485        O  0.45930541  0.28345717  0.65253144    -0.85600
O486        O  0.49309818  0.31439197  0.71662495    -0.82600
C487        C  0.46946685  0.30462688  0.74297594     0.97900
O488        O  0.46581054  0.26913562  0.75215574    -0.82700
O489        O  0.47394930  0.18737668  0.74443807    -0.85300
C490        C  0.45005545  0.17436916  0.71948283     1.02400
O491        O  0.45257656  0.18443772  0.68436120    -0.78100
O492        O  0.46871807  0.22875519  0.62132805    -0.78300
C493        C  0.44745434  0.25818114  0.62897667     1.02300
O494        O  0.53410431  0.26750703  0.62002276    -0.85600
O495        O  0.56645081  0.28879406  0.68969752    -0.82700
C496        C  0.57121539  0.29436850  0.72553369     0.97900
O497        O  0.54921534  0.27733534  0.75002943    -0.82700
O498        O  0.55694019  0.19849568  0.73735140    -0.85300
C499        C  0.55714495  0.16726874  0.71812609     1.02400
O500        O  0.53162294  0.16097714  0.69251349    -0.78100
O501        O  0.55306501  0.20960881  0.63397701    -0.78300
C502        C  0.55983343  0.24163978  0.61786527     1.02300
Cr503      Cr  0.51295494  0.28531792  0.67091787     1.93700
Cr504      Cr  0.51107561  0.23315076  0.74244870     1.93200
Cr505      Cr  0.50202475  0.19886181  0.65981963     1.39100
O506        O  0.50804084  0.23887164  0.69145743    -1.23300
O507        O  0.74489379  0.35574412  0.43716992    -0.85600
O508        O  0.70024162  0.29675419  0.46363275    -0.82600
C509        C  0.70960191  0.26781332  0.44312740     0.97900
O510        O  0.74267710  0.25215166  0.44615518    -0.82700
O511        O  0.82249248  0.25089041  0.45992401    -0.85300
C512        C  0.83774597  0.27367435  0.43487755     1.02400
O513        O  0.83254868  0.30982485  0.43714533    -0.78100
O514        O  0.80037854  0.37985899  0.45552343    -0.78300
C515        C  0.77440399  0.37603850  0.42996174     1.02300
O516        O  0.75558823  0.38269217  0.51682531    -0.85600
O517        O  0.71626144  0.31793011  0.54137281    -0.82700
C518        C  0.70720157  0.28274669  0.54574236     0.97900
O519        O  0.72576629  0.25653760  0.52736237    -0.82700
O520        O  0.80553256  0.26048591  0.54291171    -0.85300
C521        C  0.83984066  0.27351133  0.54271900     1.02400
O522        O  0.85116108  0.29565099  0.51577066    -0.78100
O523        O  0.81051604  0.36007224  0.53791280    -0.78300
C524        C  0.78026414  0.37981420  0.54383268     1.02300
Cr525      Cr  0.73229355  0.33683116  0.48975465     1.93700
Cr526      Cr  0.77453649  0.25857230  0.49405094     1.93200
Cr527      Cr  0.82043954  0.33491362  0.48692708     1.39100
O528        O  0.77556588  0.30971121  0.49011610    -1.23300
C529        C  0.59799733  0.25072161  0.59939375    -0.05700
C530        C  0.60570437  0.28936773  0.58889235    -0.33100
C531        C  0.64181781  0.30049450  0.57390215     0.36100
C532        C  0.67142081  0.27262072  0.56805825    -0.06100
C533        C  0.66408939  0.23395060  0.57907346    -0.33000
C534        C  0.62794112  0.22297202  0.59495693     0.36000
H535        H  0.58366265  0.31156200  0.59260177     0.16400
O536        O  0.64693168  0.33851018  0.56316071    -0.60500
H537        H  0.68626579  0.21198473  0.57486345     0.16400
O538        O  0.62240963  0.18515217  0.60612826    -0.60600
H539        H  0.61360324  0.17149038  0.58235462     0.43400
H540        H  0.65185672  0.35265753  0.58779021     0.43300
C541        C  0.62432716  0.40187453  0.75457599    -0.05700
C542        C  0.63103222  0.38501687  0.71802373    -0.33100
C543        C  0.61834342  0.34755655  0.70983234     0.36100
C544        C  0.59651878  0.32677968  0.73782420    -0.06100
C545        C  0.59209879  0.34260939  0.77538291    -0.33000
C546        C  0.60603893  0.37990105  0.78389879     0.36000
H547        H  0.64613024  0.40101545  0.69542152     0.16400
O548        O  0.62542796  0.33264356  0.67343717    -0.60500
H549        H  0.57554610  0.32727221  0.79744986     0.16400
O550        O  0.59981372  0.39531793  0.82020200    -0.60600
H551        H  0.57381768  0.40770396  0.81893670     0.43400
H552        H  0.64830656  0.31541822  0.67651025     0.43300
C553        C  0.61724493  0.59097826  0.74201516    -0.05700
C554        C  0.61577993  0.60848017  0.70512469    -0.33100
C555        C  0.59627013  0.64348953  0.69930729     0.36100
C556        C  0.57752405  0.66230169  0.73054101    -0.06100
C557        C  0.57958394  0.64574022  0.76782208    -0.33000
C558        C  0.59949215  0.61040936  0.77376546     0.36000
H559        H  0.62926740  0.59465543  0.68014580     0.16400
O560        O  0.59536904  0.65911697  0.66260923    -0.60500
H561        H  0.56446127  0.65932695  0.79199055     0.16400
O562        O  0.60083240  0.59496315  0.81047814    -0.60600
H563        H  0.62337900  0.60765689  0.82306633     0.43400
H564        H  0.57577089  0.64369617  0.64824736     0.43300
C565        C  0.75461889  0.42156387  0.65964493    -0.05700
C566        C  0.72552814  0.41911899  0.63123216    -0.33100
C567        C  0.73410627  0.40805118  0.59316962     0.36100
C568        C  0.77222157  0.39693669  0.58275932    -0.06100
C569        C  0.80142011  0.39843543  0.61135300    -0.42600
C570        C  0.79301742  0.41150707  0.64931051     0.36000
H571        H  0.69589216  0.42760544  0.63793794     0.16400
O572        O  0.70452053  0.40752999  0.56661319    -0.60500
H573        H  0.83086305  0.38963584  0.60426724     0.16400
O574        O  0.82226512  0.41354304  0.67615872    -0.60600
H575        H  0.83527234  0.43878862  0.67125848     0.43400
H576        H  0.70332890  0.43433703  0.55616867     0.43300
C577        C  0.76855122  0.60693413  0.59002285    -0.05700
C578        C  0.74893853  0.62382940  0.62185954    -0.33100
C579        C  0.74746353  0.60513814  0.65793669     0.36100
C580        C  0.76574437  0.56907847  0.66265522    -0.06100
C581        C  0.78720869  0.55315301  0.63163296    -0.33000
C582        C  0.78923805  0.57211334  0.59561462     0.36000
H583        H  0.73350554  0.65102122  0.61842507     0.16400
O584        O  0.72564879  0.62086679  0.68754987    -0.60500
H585        H  0.80018706  0.52462253  0.63455549     0.16400
O586        O  0.80846507  0.55459793  0.56525114    -0.60600
H587        H  0.83631581  0.56075102  0.56927057     0.43400
H588        H  0.69879484  0.61155317  0.68303993     0.43300
C589        C  0.66840954  0.75011342  0.55993810    -0.05700
C590        C  0.63635928  0.76460568  0.53919433    -0.33100
C591        C  0.59965221  0.76789468  0.55689228     0.36100
C592        C  0.59463840  0.75618376  0.59572948    -0.06100
C593        C  0.62711541  0.74346095  0.61692371    -0.33000
C594        C  0.66381823  0.74052918  0.59933570     0.36000
H595        H  0.63924754  0.77081605  0.50838816     0.16400
O596        O  0.56849832  0.77989247  0.53527555    -0.60500
H597        H  0.62373674  0.73462652  0.64701105     0.16400
O598        O  0.69400735  0.72462011  0.61973170    -0.60600
H599        H  0.70743856  0.74700024  0.63185377     0.43400
H600        H  0.55782189  0.75589681  0.52344740     0.43300
C601        C  0.77785157  0.39453162  0.39153086    -0.05700
C602        C  0.76724989  0.37305496  0.35849050    -0.33100
C603        C  0.76207555  0.39134232  0.32241465     0.36100
C604        C  0.76720024  0.43163582  0.31965943    -0.06100
C605        C  0.78174949  0.45231384  0.35175807    -0.33000
C606        C  0.78784914  0.43381475  0.38742169     0.36000
H607        H  0.76123012  0.34228929  0.36113355     0.16400
O608        O  0.75020903  0.37038469  0.29057161    -0.60500
H609        H  0.78573142  0.48349564  0.34988691     0.16400
O610        O  0.79962805  0.45521555  0.41886386    -0.60600
H611        H  0.82840589  0.45337289  0.41864400     0.43400
H612        H  0.72991272  0.35207456  0.29985505     0.43300
C613        C  0.76767130  0.60186018  0.40037201    -0.05700
C614        C  0.79360907  0.60634571  0.36868401    -0.33100
C615        C  0.78433440  0.59181732  0.33153750     0.36100
C616        C  0.74839830  0.57327624  0.32551915    -0.06100
C617        C  0.72311351  0.56817327  0.35728341    -0.33000
C618        C  0.73246719  0.58175028  0.39423723     0.36000
H619        H  0.82080443  0.62171804  0.37249700     0.16400
O620        O  0.81020717  0.59643404  0.30138934    -0.60500
H621        H  0.69595540  0.55262049  0.35372678     0.16400
O622        O  0.70688628  0.57472816  0.42421569    -0.60600
H623        H  0.68598097  0.59430570  0.42128007     0.43400
H624        H  0.80211200  0.62067870  0.28816739     0.43300
C625        C  0.59434899  0.75555003  0.39032665    -0.05700
C626        C  0.60091545  0.71748696  0.40331169    -0.33100
C627        C  0.63738509  0.70576665  0.41609387     0.36100
C628        C  0.66843795  0.73248403  0.41713798    -0.06100
C629        C  0.66182410  0.77095069  0.40524923    -0.33000
C630        C  0.62528738  0.78246843  0.39139760     0.36000
H631        H  0.57782174  0.69609124  0.40286049     0.16400
O632        O  0.64163269  0.66850303  0.42948298    -0.60500
H633        H  0.68499103  0.79220173  0.40686842     0.16400
O634        O  0.62011882  0.82011711  0.37952972    -0.60600
H635        H  0.62982336  0.82088166  0.35230610     0.43400
H636        H  0.64651298  0.65259528  0.40588898     0.43300
C637        C  0.59327069  0.67012320  0.25512595    -0.05700
C638        C  0.59329478  0.65799986  0.21596385    -0.33100
C639        C  0.60526287  0.62051274  0.20566027     0.36100
C640        C  0.61739133  0.59449714  0.23471313    -0.06100
C641        C  0.61864311  0.60701936  0.27348287    -0.33000
C642        C  0.60740753  0.64447558  0.28375663     0.36000
H643        H  0.58226392  0.67690783  0.19340452     0.16400
O644        O  0.60389048  0.60930300  0.16738455    -0.60500
H645        H  0.62887011  0.58776051  0.29613644     0.16400
O646        O  0.60848595  0.65476520  0.32229633    -0.60600
H647        H  0.63359671  0.66850810  0.32558602     0.43400
H648        H  0.57721208  0.59908400  0.16362155     0.43300
C649        C  0.44757530  0.33666352  0.76178783    -0.05700
C650        C  0.40720573  0.33424753  0.76741742    -0.33100
C651        C  0.38516497  0.36815347  0.77363006     0.36100
C652        C  0.40347850  0.40483807  0.77329015    -0.06100
C653        C  0.44396068  0.40686837  0.77109362    -0.33000
C654        C  0.46605043  0.37314155  0.76603916     0.36000
H655        H  0.39246888  0.30665193  0.76408472     0.16400
O656        O  0.34546409  0.36546443  0.77640728    -0.60500
H657        H  0.45842294  0.43482218  0.77180531     0.16400
O658        O  0.50582175  0.37616004  0.76386039    -0.60600
H659        H  0.51152850  0.38791582  0.73811217     0.43400
H660        H  0.33966410  0.36597502  0.80470661     0.43300
C661        C  0.39012875  0.59246142  0.74161587    -0.05700
C662        C  0.41569313  0.60757366  0.76942964    -0.33100
C663        C  0.43082215  0.64514843  0.76542945     0.36100
C664        C  0.42071388  0.66802016  0.73290018    -0.06100
C665        C  0.39206580  0.65439376  0.70753983    -0.33000
C666        C  0.37683538  0.61712434  0.71156146     0.36000
H667        H  0.42503994  0.58981772  0.79362702     0.16400
O668        O  0.45764204  0.65787979  0.79187628    -0.60500
H669        H  0.38290858  0.67187738  0.68303555     0.16400
O670        O  0.34890229  0.60524565  0.68581103    -0.60600
H671        H  0.36324548  0.59771996  0.66184325     0.43400
H672        H  0.44235651  0.67235586  0.81168677     0.43300
C673        C  0.24375121  0.60052502  0.58511083    -0.05700
C674        C  0.24952330  0.62005219  0.62050066    -0.33100
C675        C  0.25500957  0.59935885  0.65504815     0.36100
C676        C  0.25594449  0.55862407  0.65416506    -0.06100
C677        C  0.24877755  0.53907545  0.61891569    -0.33000
C678        C  0.24237365  0.55979054  0.58454069     0.36000
H679        H  0.25079215  0.65149523  0.62111141     0.16400
O680        O  0.26286117  0.61916678  0.68870559    -0.60500
H681        H  0.24958046  0.50761346  0.61780638     0.16400
O682        O  0.23703116  0.54003226  0.55030231    -0.60600
H683        H  0.26337591  0.53736970  0.53869492     0.43400
H684        H  0.23732080  0.62234309  0.70185907     0.43300
C685        C  0.40535586  0.74470663  0.37473660    -0.05700
C686        C  0.39282688  0.77079059  0.40357901    -0.33100
C687        C  0.35610104  0.76685940  0.42089450     0.36100
C688        C  0.33147192  0.73598804  0.40987713    -0.06100
C689        C  0.34288189  0.71163319  0.37922442    -0.33000
C690        C  0.37925867  0.71583632  0.36153310     0.36000
H691        H  0.41193795  0.79365449  0.41363038     0.16400
O692        O  0.34600365  0.79147303  0.45066589    -0.60500
H693        H  0.32410387  0.68817415  0.36988295     0.16400
O694        O  0.38883145  0.69150759  0.33130033    -0.60600
H695        H  0.39716647  0.66689465  0.34367217     0.43400
H696        H  0.33449418  0.81448586  0.43780353     0.43300
C697        C  0.40750897  0.76966995  0.59497383    -0.05700
C698        C  0.37150494  0.77432854  0.61417366    -0.33100
C699        C  0.33650042  0.76588299  0.59490225     0.36100
C700        C  0.33770564  0.75291492  0.55610706    -0.06100
C701        C  0.37370988  0.75165780  0.53638806    -0.33000
C702        C  0.40829045  0.75968973  0.55550582     0.36000
H703        H  0.37069592  0.78196603  0.64476125     0.16400
O704        O  0.30204466  0.76673121  0.61515811    -0.60500
H705        H  0.37532691  0.74231215  0.50630734     0.16400
O706        O  0.44291276  0.75580345  0.53583827    -0.60600
H707        H  0.44915823  0.78221150  0.52615683     0.43400
H708        H  0.29440535  0.79448450  0.61592282     0.43300
C709        C  0.26427947  0.41723487  0.66355342    -0.05700
C710        C  0.29223369  0.41737927  0.63368353    -0.33100
C711        C  0.28209385  0.40922814  0.59532894     0.36100
C712        C  0.24343031  0.39895798  0.58614249    -0.06100
C713        C  0.21546072  0.39816079  0.61616904    -0.33000
C714        C  0.22544485  0.40820345  0.65442880     0.36000
H715        H  0.32190549  0.42610705  0.63957494     0.16400
O716        O  0.31022820  0.41225123  0.56698006    -0.60500
H717        H  0.18567432  0.39018901  0.60992956     0.16400
O718        O  0.19711011  0.40910404  0.68267027    -0.60600
H719        H  0.18399368  0.43454634  0.67946977     0.43400
H720        H  0.32696783  0.38904147  0.57011853     0.43300
C721        C  0.33609620  0.27529589  0.57337147    -0.05700
C722        C  0.34795094  0.29976329  0.60363010    -0.33100
C723        C  0.38350786  0.29405860  0.62231389     0.36100
C724        C  0.40878598  0.26370734  0.61038360    -0.06100
C725        C  0.39628786  0.23835704  0.58098578    -0.33000
C726        C  0.36033323  0.24377944  0.56267497     0.36000
H727        H  0.32991988  0.32410922  0.61234991     0.16400
O728        O  0.39349522  0.31914251  0.65162808    -0.60500
H729        H  0.41477599  0.21467016  0.57148215     0.16400
O730        O  0.35059080  0.21967160  0.53248801    -0.60600
H731        H  0.33686682  0.19748565  0.54479553     0.43400
H732        H  0.38249899  0.30752922  0.67569149     0.43300
C733        C  0.45020377  0.66119508  0.23012412    -0.05700
C734        C  0.41187309  0.66434301  0.21668383    -0.33100
C735        C  0.38957019  0.63069399  0.20975126     0.36100
C736        C  0.40527765  0.59356155  0.21736712    -0.06100
C737        C  0.44426613  0.59045009  0.22781406    -0.33000
C738        C  0.46692026  0.62366205  0.23332185     0.36000
H739        H  0.39846692  0.69265460  0.21390326     0.16400
O740        O  0.35149327  0.63449336  0.19880588    -0.60500
H741        H  0.45703411  0.56209810  0.23263306     0.16400
O742        O  0.50544678  0.61915149  0.24264032    -0.60600
H743        H  0.50567693  0.60997677  0.26999496     0.43400
H744        H  0.35196290  0.63331662  0.16997816     0.43300
C745        C  0.24123233  0.60937307  0.39659969    -0.05700
C746        C  0.21142519  0.60220882  0.36969960    -0.33100
C747        C  0.22020404  0.59012660  0.33155675     0.36100
C748        C  0.25934145  0.58608661  0.31948580    -0.06100
C749        C  0.28887462  0.59523574  0.34596649    -0.33000
C750        C  0.28024808  0.60584213  0.38415964     0.36000
H751        H  0.18126518  0.60531195  0.37844556     0.16400
O752        O  0.19034225  0.58132177  0.30682531    -0.60500
H753        H  0.31920669  0.59216185  0.33782638     0.16400
O754        O  0.31050952  0.61343803  0.40884368    -0.60600
H755        H  0.31840194  0.58777584  0.41920566     0.43400
H756        H  0.18650493  0.60505234  0.29098512     0.43300
C757        C  0.24640154  0.43941841  0.32241040    -0.05700
C758        C  0.25912943  0.40100930  0.32538434    -0.33100
C759        C  0.25748669  0.38178777  0.36120440     0.36100
C760        C  0.24175027  0.40073002  0.39421362    -0.06100
C761        C  0.22575642  0.43788175  0.39021257    -0.33000
C762        C  0.22856177  0.45748433  0.35471529     0.36000
H763        H  0.27339087  0.38709871  0.30086018     0.16400
O764        O  0.27193148  0.34473670  0.36386439    -0.60500
H765        H  0.21342439  0.45269742  0.41522549     0.16400
O766        O  0.21687554  0.49550985  0.35274653    -0.60600
H767        H  0.19131062  0.49487137  0.33958944     0.43400
H768        H  0.30050800  0.34782601  0.36612353     0.43300
C769        C  0.60577845  0.24357088  0.38289923    -0.05700
C770        C  0.63180832  0.27200242  0.36896517    -0.33100
C771        C  0.66827124  0.27704871  0.38567043     0.36100
C772        C  0.67987964  0.25315914  0.41648038    -0.06100
C773        C  0.65569710  0.22240612  0.42826047    -0.33000
C774        C  0.61895718  0.21712320  0.41127440     0.36000
H775        H  0.62336570  0.29176002  0.34600329     0.16400
O776        O  0.69159034  0.30694546  0.37319340    -0.60500
H777        H  0.66409285  0.20424680  0.45252845     0.16400
O778        O  0.59544319  0.18774767  0.42445053    -0.60600
H779        H  0.60051246  0.16567667  0.40657226     0.43400
H780        H  0.68113582  0.33057386  0.38605021     0.43300
C781        C  0.34562139  0.25747789  0.43233678    -0.05700
C782        C  0.38143130  0.26796132  0.44918741    -0.33100
C783        C  0.41654893  0.25720905  0.43238663     0.36100
C784        C  0.41674263  0.23502776  0.39824876    -0.06100
C785        C  0.38125950  0.22145767  0.38301279    -0.33000
C786        C  0.34565535  0.23259866  0.39992504     0.36000
H787        H  0.38252763  0.28578543  0.47516369     0.16400
O788        O  0.45055290  0.27003836  0.44867365    -0.60500
H789        H  0.38105955  0.20420198  0.35664081     0.16400
O790        O  0.31147749  0.22122130  0.38307680    -0.60600
H791        H  0.30365205  0.19735560  0.39721150     0.43400
H792        H  0.45646415  0.25110860  0.46953267     0.43300
C793        C  0.61435268  0.40448594  0.23415824    -0.05700
C794        C  0.57652513  0.40069536  0.21976556    -0.33100
C795        C  0.55617894  0.36571307  0.22448302     0.36100
C796        C  0.57383881  0.33388757  0.24317315    -0.06100
C797        C  0.61256944  0.33669895  0.25476057    -0.33000
C798        C  0.63285831  0.37158615  0.25013894     0.36000
H799        H  0.56199877  0.42539512  0.20685388     0.16400
O800        O  0.51815596  0.36364896  0.21302312    -0.60500
H801        H  0.62633171  0.31265409  0.26963123     0.16400
O802        O  0.67054517  0.37361746  0.26251063    -0.60600
H803        H  0.68657627  0.36986697  0.23871319     0.43400
H804        H  0.51906757  0.35190907  0.18667881     0.43300
C805        C  0.42306947  0.33291753  0.26166136    -0.05700
C806        C  0.40403725  0.35316961  0.29169902    -0.33100
C807        C  0.38802030  0.38993254  0.28566345     0.36100
C808        C  0.39071161  0.40803584  0.24870881    -0.06100
C809        C  0.40810757  0.38709268  0.21804835    -0.33000
C810        C  0.42379995  0.34978075  0.22415052     0.36000
H811        H  0.40263953  0.34115098  0.32080339     0.16400
O812        O  0.37106317  0.40838718  0.31684068    -0.60500
H813        H  0.40950246  0.39957052  0.18915932     0.16400
O814        O  0.44081140  0.33071421  0.19344616    -0.60600
H815        H  0.41904621  0.31801105  0.17956315     0.43400
H816        H  0.34491009  0.39652087  0.31956102     0.43300
C817        C  0.59682823  0.84900266  0.72401595    -0.05700
C818        C  0.60131464  0.86043031  0.76281063    -0.33100
C819        C  0.62839067  0.88884131  0.77306973     0.36100
C820        C  0.65157701  0.90717727  0.74414752    -0.06100
C821        C  0.64850507  0.89440112  0.70556248    -0.33000
C822        C  0.62190815  0.86527829  0.69543377     0.36000
H823        H  0.58283276  0.84828255  0.78535823     0.16400
O824        O  0.63015887  0.89992638  0.81136831    -0.60500
H825        H  0.66649233  0.90728311  0.68303135     0.16400
O826        O  0.61994725  0.85400366  0.65720464    -0.60600
H827        H  0.63598432  0.83011738  0.65542705     0.43400
H828        H  0.64830981  0.88131899  0.82369607     0.43300
C829        C  0.58679012  0.13711555  0.72592495    -0.05700
C830        C  0.57752493  0.09785224  0.71961128    -0.33100
C831        C  0.60479285  0.06860903  0.72673602     0.36100
C832        C  0.64234709  0.07843751  0.73926147    -0.06100
C833        C  0.65202363  0.11753602  0.74498827    -0.33000
C834        C  0.62437151  0.14680039  0.73908465     0.36000
H835        H  0.54878198  0.08972219  0.70976719     0.16400
O836        O  0.59444620  0.03049194  0.72151854    -0.60500
H837        H  0.68078853  0.12530924  0.75508711     0.16400
O838        O  0.63474325  0.18476975  0.74516876    -0.60600
H839        H  0.63242015  0.18875956  0.77367740     0.43400
H840        H  0.60237452  0.02415299  0.69446050     0.43300
C841        C  0.76174981  0.35027749  0.08046773    -0.05700
C842        C  0.72350462  0.36431748  0.08150574    -0.33100
C843        C  0.71255303  0.39370571  0.10748799     0.36100
C844        C  0.74019682  0.41021251  0.13302183    -0.06100
C845        C  0.77814221  0.39551571  0.13279985    -0.33000
C846        C  0.78903216  0.36582908  0.10707235     0.36000
H847        H  0.70204032  0.35318262  0.06143803     0.16400
O848        O  0.67509689  0.40732715  0.10619021    -0.60500
H849        H  0.79961486  0.40715070  0.15258140     0.16400
O850        O  0.82654783  0.35237420  0.10831960    -0.60600
H851        H  0.84191699  0.37086710  0.09232300     0.43400
H852        H  0.65977056  0.38926968  0.12271733     0.43300
C853        C  0.75141595  0.41703911  0.85523969    -0.05700
C854        C  0.72121419  0.40180188  0.87835691    -0.33100
C855        C  0.72840447  0.37264728  0.90573559     0.36100
C856        C  0.76650264  0.35927774  0.91154969    -0.06100
C857        C  0.79687721  0.37444242  0.88861263    -0.33000
C858        C  0.78941596  0.40248539  0.85995119     0.36000
H859        H  0.69173289  0.41230572  0.87494031     0.16400
O860        O  0.69828668  0.35867991  0.92801419    -0.60500
H861        H  0.82636070  0.36416159  0.89263868     0.16400
O862        O  0.81964988  0.41657199  0.83790972    -0.60600
H863        H  0.82209242  0.39831432  0.81569819     0.43400
H864        H  0.68456610  0.33985683  0.91110494     0.43300
C865        C  0.76124116  0.16736546  0.90393926    -0.05700
C866        C  0.79086374  0.14006468  0.89728221    -0.33100
C867        C  0.78299610  0.10367838  0.88170186     0.36100
C868        C  0.74472963  0.09361204  0.87108757    -0.06100
C869        C  0.71505611  0.12149426  0.87588125    -0.33000
C870        C  0.72304055  0.15805189  0.89251686     0.36000
H871        H  0.82049489  0.14603920  0.90588758     0.16400
O872        O  0.81344837  0.07841758  0.87649418    -0.60500
H873        H  0.68558806  0.11481418  0.86717468     0.16400
O874        O  0.69333048  0.18408424  0.89784482    -0.60600
H875        H  0.69417800  0.20109097  0.87457915     0.43400
H876        H  0.81683017  0.06549736  0.90203318     0.43300
C877        C  0.91265068  0.76275614  0.63856800    -0.05700
C878        C  0.89318230  0.79061649  0.61580651    -0.33100
C879        C  0.86629957  0.77959705  0.58746585     0.36100
C880        C  0.85773429  0.73999772  0.58168975    -0.06100
C881        C  0.87590971  0.71231192  0.60566987    -0.33000
C882        C  0.90310593  0.72331699  0.63368966     0.36000
H883        H  0.89965103  0.82124145  0.61898633     0.16400
O884        O  0.84911434  0.80785728  0.56533501    -0.60500
H885        H  0.86979671  0.68165265  0.60217657     0.16400
O886        O  0.92096484  0.69502905  0.65519445    -0.60600
H887        H  0.90484318  0.69240566  0.67906616     0.43400
H888        H  0.86769629  0.81295446  0.54375162     0.43300
C889        C  0.08545544  0.75616019  0.63466040    -0.05700
C890        C  0.09080825  0.77782804  0.60032478    -0.33100
C891        C  0.12049610  0.76888575  0.57395615     0.36100
C892        C  0.14526388  0.73721921  0.58109401    -0.06100
C893        C  0.14082816  0.71610726  0.61582355    -0.33000
C894        C  0.11148632  0.72559415  0.64271713     0.36000
H895        H  0.07168083  0.80184356  0.59352751     0.16400
O896        O  0.12333776  0.78976138  0.54007136    -0.60500
H897        H  0.15990436  0.69184544  0.62190946     0.16400
O898        O  0.10842024  0.70455585  0.67644522    -0.60600
H899        H  0.09032651  0.68300302  0.67034909     0.43400
H900        H  0.13954821  0.81264886  0.54660065     0.43300
C901        C  0.90981004  0.89489322  0.72236054    -0.05700
C902        C  0.90454963  0.92972561  0.70205067    -0.33100
C903        C  0.86844770  0.94840883  0.70282948     0.36100
C904        C  0.83692410  0.93156136  0.72302593    -0.06100
C905        C  0.84109127  0.89494195  0.73987966    -0.33000
C906        C  0.87738282  0.87671815  0.74010660     0.36000
H907        H  0.92903179  0.94378369  0.68793558     0.16400
O908        O  0.86527304  0.98492146  0.68722957    -0.60500
H909        H  0.81715889  0.88211120  0.75603160     0.16400
O910        O  0.88107390  0.84147067  0.75834745    -0.60600
H911        H  0.87954231  0.84722049  0.78659315     0.43400
H912        H  0.85067444  0.98140612  0.66269799     0.43300
C913        C  0.36763518  0.08263762  0.74247472    -0.05700
C914        C  0.39850796  0.08948171  0.76835104    -0.33100
C915        C  0.42472546  0.12010191  0.76232079     0.36100
C916        C  0.42032059  0.14488938  0.73003326    -0.06100
C917        C  0.38898580  0.13855566  0.70469474    -0.33000
C918        C  0.36293590  0.10789451  0.71057410     0.36000
H919        H  0.40257588  0.07089920  0.79341200     0.16400
O920        O  0.45504549  0.12476496  0.78763412    -0.60500
H921        H  0.38495474  0.15711018  0.67959319     0.16400
O922        O  0.33318503  0.10288400  0.68466806    -0.60600
H923        H  0.34408594  0.08613764  0.66380677     0.43400
H924        H  0.47650516  0.10877761  0.77673707     0.43300
C925        C  0.35877362  0.90830989  0.74556838    -0.05700
C926        C  0.37186516  0.88319402  0.77522656    -0.33100
C927        C  0.40196376  0.85641024  0.76855506     0.36100
C928        C  0.42010272  0.85444623  0.73181429    -0.06100
C929        C  0.40558384  0.87778814  0.70158709    -0.33000
C930        C  0.37486653  0.90394914  0.70797642     0.36000
H931        H  0.35958942  0.88506947  0.80427096     0.16400
O932        O  0.41426617  0.83336656  0.79858198    -0.60500
H933        H  0.41822639  0.87583315  0.67269424     0.16400
O934        O  0.36195985  0.92605438  0.67752507    -0.60600
H935        H  0.34300263  0.90936767  0.66371161     0.43400
H936        H  0.43552430  0.84814273  0.81114863     0.43300
C937        C  0.16786002  0.94049745  0.72524174    -0.05700
C938        C  0.13196382  0.96010950  0.72381737    -0.33100
C939        C  0.09734099  0.94006388  0.71791190     0.36100
C940        C  0.09806185  0.89979445  0.71239458    -0.06100
C941        C  0.13397898  0.88025928  0.71078887    -0.33000
C942        C  0.16889318  0.90034513  0.71766401     0.36000
H943        H  0.13045989  0.99105273  0.72936848     0.16400
O944        O  0.06274452  0.95985864  0.71924533    -0.60500
H945        H  0.13471724  0.84905046  0.70675997     0.16400
O946        O  0.20319992  0.88016517  0.71954851    -0.60600
H947        H  0.20408107  0.86950275  0.74633346     0.43400
H948        H  0.05792140  0.96810227  0.69206787     0.43300
C949        C  0.76345003  0.64268358  0.90918846    -0.05700
C950        C  0.78949550  0.61195214  0.90190472    -0.33100
C951        C  0.78203805  0.58430537  0.87303822     0.36100
C952        C  0.74797418  0.58692799  0.85065935    -0.06100
C953        C  0.72218290  0.61793211  0.85758315    -0.33000
C954        C  0.72978746  0.64576726  0.88622726     0.36000
H955        H  0.81580799  0.60910240  0.91882798     0.16400
O956        O  0.80782814  0.55435781  0.86774380    -0.60500
H957        H  0.69567933  0.62050797  0.84091780     0.16400
O958        O  0.70330550  0.67493395  0.89242935    -0.60600
H959        H  0.70978565  0.69511525  0.87286759     0.43400
H960        H  0.79805990  0.53305113  0.88456706     0.43300
C961        C  0.76076901  0.64691524  0.07858903    -0.05700
C962        C  0.78551153  0.63903209  0.11007940    -0.33100
C963        C  0.77768174  0.60858541  0.13599757     0.36100
C964        C  0.74448735  0.58504312  0.13087891    -0.06100
C965        C  0.71929784  0.59351841  0.09988214    -0.33000
C966        C  0.72705039  0.62414301  0.07408222     0.36000
H967        H  0.81165053  0.65608525  0.11423110     0.16400
O968        O  0.80315944  0.60182665  0.16577746    -0.60500
H969        H  0.69345652  0.57614939  0.09534088     0.16400
O970        O  0.70263765  0.62996099  0.04324731    -0.60600
H971        H  0.68154758  0.64680606  0.05349934     0.43400
H972        H  0.82213323  0.58278673  0.15524653     0.43300
C973        C  0.89347414  0.74756360  0.89906266    -0.05700
C974        C  0.90768705  0.78521032  0.89286811    -0.33100
C975        C  0.92408785  0.79590194  0.85734808     0.36100
C976        C  0.92877616  0.76819131  0.82735971    -0.06100
C977        C  0.91194663  0.73132836  0.83208812    -0.33000
C978        C  0.89385651  0.72107941  0.86753122     0.36000
H979        H  0.90592763  0.80693294  0.91563244     0.16400
O980        O  0.93694918  0.83339907  0.85280162    -0.60500
H981        H  0.91421944  0.70995791  0.80904757     0.16400
O982        O  0.87679213  0.68524714  0.87094470    -0.60600
H983        H  0.89811435  0.66740100  0.87833280     0.43400
H984        H  0.91318761  0.84923645  0.84908036     0.43300
C985        C  0.76236643  0.83044542  0.90319635    -0.05700
C986        C  0.73082243  0.85457557  0.91302715    -0.33100
C987        C  0.72673125  0.89132290  0.89595762     0.36100
C988        C  0.75355279  0.90370128  0.86737690    -0.06100
C989        C  0.78282481  0.87779963  0.85508448    -0.33000
C990        C  0.78758636  0.84176824  0.87290873     0.36000
H991        H  0.71096091  0.84627419  0.93614955     0.16400
O992        O  0.69732027  0.91522209  0.90847222    -0.60500
H993        H  0.80305740  0.88578344  0.83216120     0.16400
O994        O  0.81741269  0.81802072  0.86094245    -0.60600
H995        H  0.84150835  0.83074692  0.87020918     0.43400
H996        H  0.70848720  0.93020563  0.93038808     0.43300
C997        C  0.14230618  0.73886750  0.41103570    -0.05700
C998        C  0.11620711  0.71066581  0.39731571    -0.33100
C999        C  0.09015281  0.71910018  0.36733371     0.36100
C1000       C  0.08922632  0.75666170  0.35097914    -0.06100
C1001       C  0.11587053  0.78463556  0.36442741    -0.33000
C1002       C  0.14219046  0.77600321  0.39405217     0.36000
H1003       H  0.11612172  0.68175972  0.40975786     0.16400
O1004       O  0.06490973  0.69074818  0.35532737    -0.60500
H1005       H  0.11598006  0.81371360  0.35241812     0.16400
O1006       O  0.16697305  0.80443676  0.40680825    -0.60600
H1007       H  0.15245235  0.81828231  0.42762272     0.43400
H1008       H  0.07976666  0.67514952  0.33605346     0.43300
C1009       C  0.91996540  0.75650730  0.35179265    -0.05700
C1010       C  0.89337565  0.78515794  0.36375828    -0.33100
C1011       C  0.86448869  0.77673358  0.39153970     0.36100
C1012       C  0.86308006  0.73967573  0.40884010    -0.06100
C1013       C  0.88954808  0.71104537  0.39630794    -0.33000
C1014       C  0.91741571  0.71908417  0.36767184     0.36000
H1015       H  0.89505615  0.81410962  0.35151815     0.16400
O1016       O  0.83920058  0.80539982  0.40294814    -0.60500
H1017       H  0.88877680  0.68222410  0.40892635     0.16400
O1018       O  0.94352501  0.69083894  0.35704350    -0.60600
H1019       H  0.93020498  0.67545140  0.33669530     0.43400
H1020       H  0.81811819  0.80497283  0.38339801     0.43300
C1021       C  0.88278622  0.74900657  0.09181839    -0.05700
C1022       C  0.91065601  0.72121347  0.10248452    -0.33100
C1023       C  0.92757129  0.72212797  0.13947220     0.36100
C1024       C  0.91735133  0.75175707  0.16592814    -0.06100
C1025       C  0.88662900  0.77676646  0.15679156    -0.33000
C1026       C  0.86916881  0.77543639  0.12034894     0.36000
H1027       H  0.92049750  0.69964813  0.08168575     0.16400
O1028       O  0.95649690  0.69620247  0.14800807    -0.60500
H1029       H  0.87774220  0.79918848  0.17714854     0.16400
O1030       O  0.84000724  0.80141568  0.11254141    -0.60600
H1031       H  0.81557105  0.78775893  0.11960183     0.43400
H1032       H  0.94286829  0.67274299  0.15775573     0.43300
C1033       C  0.86462591  0.25886842  0.40451757    -0.05700
C1034       C  0.88701807  0.22563107  0.41160226    -0.33100
C1035       C  0.91676733  0.21460514  0.38581693     0.36100
C1036       C  0.92426827  0.23674911  0.35188409    -0.06100
C1037       C  0.90045983  0.26880734  0.34395018    -0.33000
C1038       C  0.87097598  0.27991673  0.36981889     0.36000
H1039       H  0.88253077  0.20896140  0.43797821     0.16400
O1040       O  0.93799478  0.18191513  0.39398127    -0.60500
H1041       H  0.90514946  0.28593325  0.31791687     0.16400
O1042       O  0.84897713  0.31193385  0.36113587    -0.60600
H1043       H  0.82486511  0.30148672  0.34939409     0.43400
H1044       H  0.95820932  0.19051204  0.41256569     0.43300
C1045       C  0.15157865  0.26780905  0.40035941    -0.05700
C1046       C  0.12891842  0.29436343  0.37906455    -0.33100
C1047       C  0.10166720  0.28165513  0.35155766     0.36100
C1048       C  0.09672621  0.24158703  0.34436490    -0.06100
C1049       C  0.12068486  0.21522430  0.36436359    -0.33000
C1050       C  0.14767132  0.22788109  0.39198863     0.36000
H1051       H  0.13146366  0.32526205  0.38440876     0.16400
O1052       O  0.07994379  0.30875692  0.33213848    -0.60500
H1053       H  0.11789561  0.18428390  0.35941025     0.16400
O1054       O  0.16909130  0.20061814  0.41146726    -0.60600
H1055       H  0.19386240  0.19854556  0.39668912     0.43400
H1056       H  0.05946567  0.31696005  0.35085585     0.43300
C1057       C  0.88490894  0.23680170  0.08976180    -0.05700
C1058       C  0.91029419  0.26532483  0.10398802    -0.33100
C1059       C  0.92874489  0.26075279  0.13992118     0.36100
C1060       C  0.92200676  0.22707889  0.16249580    -0.06100
C1061       C  0.89526068  0.19952368  0.14913667    -0.33000
C1062       C  0.87671324  0.20410074  0.11337670     0.36000
H1063       H  0.91668405  0.29093439  0.08681985     0.16400
O1064       O  0.95539983  0.28809846  0.15117781    -0.60500
H1065       H  0.88959734  0.17342070  0.16584170     0.16400
O1066       O  0.85185127  0.17546836  0.10119654    -0.60600
H1067       H  0.82960534  0.17634396  0.11961566     0.43400
H1068       H  0.94006018  0.30827283  0.16499954     0.43300
C1069       C  0.92605260  0.24776020  0.62846080    -0.05700
C1070       C  0.88718334  0.25324251  0.64006737    -0.33100
C1071       C  0.85823190  0.26041891  0.61239323     0.36100
C1072       C  0.86821874  0.26257302  0.57266419    -0.06100
C1073       C  0.90716521  0.25772408  0.56130378    -0.33000
C1074       C  0.93588192  0.25004796  0.58869275     0.36000
H1075       H  0.87918873  0.25135365  0.67054672     0.16400
O1076       O  0.82060164  0.26612348  0.62453787    -0.60500
H1077       H  0.91545845  0.25995803  0.53090381     0.16400
O1078       O  0.97379065  0.24648013  0.57646924    -0.60600
H1079       H  0.97579819  0.22001751  0.56522712     0.43400
H1080       H  0.81741235  0.29470834  0.62615461     0.43300
C1081       C  0.14555041  0.26600325  0.57262728    -0.05700
C1082       C  0.11374378  0.29033439  0.58109198    -0.33100
C1083       C  0.08744552  0.28132521  0.61086731     0.36100
C1084       C  0.09239111  0.24725790  0.63287402    -0.06100
C1085       C  0.12427469  0.22291904  0.62456906    -0.33000
C1086       C  0.15082317  0.23211942  0.59493455     0.36000
H1087       H  0.10900493  0.31659427  0.56444752     0.16400
O1088       O  0.05581692  0.30493839  0.61660372    -0.60500
H1089       H  0.12842619  0.19628056  0.64078721     0.16400
O1090       O  0.18072893  0.20691631  0.58700818    -0.60600
H1091       H  0.20118137  0.21326758  0.60620533     0.43400
H1092       H  0.06480395  0.32540923  0.63475086     0.43300
C1093       C  0.83766152  0.07993995  0.73985627    -0.05700
C1094       C  0.86273757  0.08802058  0.77099645    -0.33100
C1095       C  0.89980020  0.10337168  0.76499822     0.36100
C1096       C  0.91302599  0.11177255  0.72703991    -0.06100
C1097       C  0.88794129  0.10424751  0.69558851    -0.33000
C1098       C  0.85075752  0.08795096  0.70172319     0.36000
H1099       H  0.85419344  0.08141809  0.80065478     0.16400
O1100       O  0.92292841  0.10989223  0.79674383    -0.60500
H1101       H  0.89728588  0.11070044  0.66614386     0.16400
O1102       O  0.82789868  0.07954074  0.67029686    -0.60600
H1103       H  0.81101609  0.10261896  0.66696560     0.43400
H1104       H  0.90963383  0.13052664  0.81191467     0.43300
C1105       C  0.10515615  0.12179482  0.73271440    -0.05700
C1106       C  0.13349952  0.13854338  0.75688855    -0.33100
C1107       C  0.17098592  0.12305103  0.75905086     0.36100
C1108       C  0.18070209  0.08975559  0.73735518    -0.06100
C1109       C  0.15373048  0.07525255  0.71038469    -0.33000
C1110       C  0.11612319  0.09090051  0.70806814     0.36000
H1111       H  0.12637166  0.16329577  0.77502525     0.16400
O1112       O  0.19724833  0.13930268  0.78416360    -0.60500
H1113       H  0.16063696  0.04968118  0.69331151     0.16400
O1114       O  0.08989469  0.07446536  0.68308881    -0.60600
H1115       H  0.07826157  0.05247615  0.69770272     0.43400
H1116       H  0.20861510  0.16159854  0.76982104     0.43300
C1117       C  0.92853830  0.24268035  0.82599301    -0.05700
C1118       C  0.92569161  0.21214821  0.85290112    -0.33100
C1119       C  0.91166147  0.21809555  0.89043395     0.36100
C1120       C  0.89925753  0.25530298  0.90211755    -0.06100
C1121       C  0.90309536  0.28641879  0.87570018    -0.33000
C1122       C  0.91841670  0.28045904  0.83813153     0.36000
H1123       H  0.93568140  0.18330169  0.84540742     0.16400
O1124       O  0.91050762  0.18709543  0.91547028    -0.60500
H1125       H  0.89398149  0.31538205  0.88403547     0.16400
O1126       O  0.92275431  0.31150030  0.81352000    -0.60600
H1127       H  0.94794954  0.32346339  0.82072952     0.43400
H1128       H  0.88743917  0.17175414  0.90767505     0.43300
C1129       C  0.24822443  0.64316551  0.07189729    -0.05700
C1130       C  0.22778580  0.64063557  0.10720311    -0.33100
C1131       C  0.23651470  0.61196860  0.13446850     0.36100
C1132       C  0.26589803  0.58430608  0.12652559    -0.06100
C1133       C  0.28669029  0.58711517  0.09117844    -0.33000
C1134       C  0.27816275  0.61633029  0.06406294     0.36000
H1135       H  0.20448951  0.66090622  0.11361083     0.16400
O1136       O  0.21517446  0.61077999  0.16829131    -0.60500
H1137       H  0.30936730  0.56636360  0.08424562     0.16400
O1138       O  0.29746184  0.61675214  0.02902672    -0.60600
H1139       H  0.32069908  0.63320984  0.03332918     0.43400
H1140       H  0.22916463  0.62799091  0.18664503     0.43300
C1141       C  0.26572604  0.59418724  0.84172460    -0.05700
C1142       C  0.23040310  0.59110470  0.86198376    -0.33100
C1143       C  0.22021672  0.61789924  0.89089188     0.36100
C1144       C  0.24549846  0.64893778  0.90027440    -0.06100
C1145       C  0.27968103  0.65362658  0.87819357    -0.33000
C1146       C  0.28992530  0.62658102  0.84920547     0.36000
H1147       H  0.21119241  0.56674370  0.85672787     0.16400
O1148       O  0.18591066  0.61253320  0.91076046    -0.60500
H1149       H  0.29925211  0.67747436  0.88433776     0.16400
O1150       O  0.32425935  0.63149758  0.82928624    -0.60600
H1151       H  0.31730579  0.64630495  0.80559318     0.43400
H1152       H  0.16535948  0.62196313  0.89303051     0.43300
C1153       C  0.11421265  0.74657687  0.89734409    -0.05700
C1154       C  0.10622106  0.78576278  0.88948050    -0.33100
C1155       C  0.09208141  0.79744464  0.85332092     0.36100
C1156       C  0.08394830  0.76954987  0.82434734    -0.06100
C1157       C  0.09303240  0.73045492  0.83165184    -0.33000
C1158       C  0.10865446  0.71897640  0.86750268     0.36000
H1159       H  0.11140886  0.80779081  0.91137231     0.16400
O1160       O  0.08421403  0.83606776  0.84761880    -0.60500
H1161       H  0.08732344  0.70856958  0.80975689     0.16400
O1162       O  0.11796854  0.68069922  0.87308201    -0.60600
H1163       H  0.09331545  0.66798166  0.88106235     0.43400
H1164       H  0.10895146  0.84743828  0.83794557     0.43300
C1165       C  0.11374496  0.73246353  0.08822220    -0.05700
C1166       C  0.13204610  0.74684892  0.12181089    -0.33100
C1167       C  0.11247318  0.74790389  0.15767370     0.36100
C1168       C  0.07391127  0.73485105  0.16024044    -0.06100
C1169       C  0.05676916  0.71758851  0.12747681    -0.33000
C1170       C  0.07654685  0.71582357  0.09174422     0.36000
H1171       H  0.16114450  0.75873447  0.11990626     0.16400
O1172       O  0.12964681  0.76573171  0.18882815    -0.60500
H1173       H  0.02682344  0.70814938  0.12879136     0.16400
O1174       O  0.05769763  0.70154968  0.05973177    -0.60600
H1175       H  0.06038324  0.67293672  0.06149629     0.43400
H1176       H  0.14468130  0.74501204  0.20191830     0.43300
C1177       C  0.24085081  0.83733744  0.91045626    -0.05700
C1178       C  0.27197291  0.86171673  0.92061103    -0.33100
C1179       C  0.27782815  0.89733530  0.90158916     0.36100
C1180       C  0.25235793  0.90905720  0.87179706    -0.06100
C1181       C  0.22282509  0.88330618  0.86011185    -0.33000
C1182       C  0.21710737  0.84782544  0.87897274     0.36000
H1183       H  0.29059213  0.85417654  0.94476661     0.16400
O1184       O  0.30791558  0.92072889  0.91306147    -0.60500
H1185       H  0.20358782  0.89079387  0.83642354     0.16400
O1186       O  0.18744934  0.82407582  0.86707508    -0.60600
H1187       H  0.19872821  0.80800281  0.84587555     0.43400
H1188       H  0.29739137  0.93621495  0.93507029     0.43300
C1189       C  0.24686023  0.35654053  0.90467190    -0.05700
C1190       C  0.28082611  0.37835896  0.91035142    -0.33100
C1191       C  0.28957409  0.41008746  0.88625476     0.36100
C1192       C  0.26438817  0.42008879  0.85550028    -0.06100
C1193       C  0.23125911  0.39727369  0.84908275    -0.33000
C1194       C  0.22243651  0.36586840  0.87314930     0.36000
H1195       H  0.29987407  0.37182400  0.93446204     0.16400
O1196       O  0.32313158  0.43058079  0.89266062    -0.60500
H1197       H  0.21169916  0.40395800  0.82542496     0.16400
O1198       O  0.18922289  0.34502029  0.86604208    -0.60600
H1199       H  0.19732992  0.32393313  0.84806951     0.43400
H1200       H  0.31646198  0.44953498  0.91339612     0.43300
C1201       C  0.24661052  0.35905764  0.07515449    -0.05700
C1202       C  0.22354495  0.39253442  0.08025383    -0.33100
C1203       C  0.23153563  0.41967328  0.10947687     0.36100
C1204       C  0.26358847  0.41423039  0.13418270    -0.06100
C1205       C  0.28618245  0.38038933  0.12977591    -0.33000
C1206       C  0.27762271  0.35272710  0.10103044     0.36000
H1207       H  0.19915560  0.39805386  0.06124893     0.16400
O1208       O  0.20911121  0.45252314  0.11200467    -0.60500
H1209       H  0.31092108  0.37547352  0.14850549     0.16400
O1210       O  0.30063606  0.32037384  0.09776903    -0.60600
H1211       H  0.28904820  0.30118394  0.11595738     0.43400
H1212       H  0.18722929  0.44549974  0.12956273     0.43300
C1213       C  0.07470877  0.24103527  0.15467942    -0.05700
C1214       C  0.08406264  0.28022394  0.14779102    -0.33100
C1215       C  0.10175771  0.29151574  0.11238578     0.36100
C1216       C  0.10955294  0.26343026  0.08335390    -0.06100
C1217       C  0.10101317  0.22445835  0.09108644    -0.33000
C1218       C  0.08423173  0.21315451  0.12607906     0.36000
H1219       H  0.07638561  0.30215216  0.16910118     0.16400
O1220       O  0.10955051  0.33001748  0.10583319    -0.60500
H1221       H  0.10769898  0.20207538  0.06990302     0.16400
O1222       O  0.07744380  0.17432506  0.13217210    -0.60600
H1223       H  0.05470097  0.16777977  0.11580553     0.43400
H1224       H  0.13566991  0.33447263  0.11704767     0.43300
C1225       C  0.07270867  0.26244561  0.82355019    -0.05700
C1226       C  0.05365906  0.27567797  0.85737552    -0.33100
C1227       C  0.07338585  0.27828887  0.89280520     0.36100
C1228       C  0.11239258  0.26632287  0.89498330    -0.06100
C1229       C  0.13206411  0.25540603  0.86065526    -0.33000
C1230       C  0.11260453  0.25403089  0.82495771     0.36000
H1231       H  0.02267613  0.28147675  0.85683871     0.16400
O1232       O  0.05325635  0.28876372  0.92574473    -0.60500
H1233       H  0.16234576  0.24680946  0.86176542     0.16400
O1234       O  0.13180392  0.24062458  0.79255819    -0.60600
H1235       H  0.13888854  0.26422796  0.77760003     0.43400
H1236       H  0.05566068  0.31741847  0.92719430     0.43300
C1237       C  0.25690520  0.16087453  0.92632864    -0.05700
C1238       C  0.27834418  0.16386817  0.89147672    -0.33100
C1239       C  0.28720002  0.13033378  0.86935459     0.36100
C1240       C  0.27387121  0.09346424  0.88172741    -0.06100
C1241       C  0.25463147  0.09045091  0.91745268    -0.33000
C1242       C  0.24692454  0.12321131  0.93997112     0.36000
H1243       H  0.28668268  0.19216464  0.88051814     0.16400
O1244       O  0.30609599  0.13428016  0.83433803    -0.60500
H1245       H  0.24482577  0.06236366  0.92783233     0.16400
O1246       O  0.22827053  0.11790849  0.97498656    -0.60600
H1247       H  0.24934199  0.11560654  0.99440498     0.43400
H1248       H  0.33416238  0.13459884  0.84079122     0.43300
C1249       C  0.64408480  0.92175361  0.24608284    -0.05700
C1250       C  0.65532363  0.88259649  0.24819908    -0.33100
C1251       C  0.62760330  0.85336961  0.25504854     0.36100
C1252       C  0.58825712  0.86330229  0.26110444    -0.06100
C1253       C  0.57750978  0.90260689  0.26087566    -0.33000
C1254       C  0.60485888  0.93161188  0.25279890     0.36000
H1255       H  0.68536283  0.87450657  0.24303461     0.16400
O1256       O  0.63938588  0.81536724  0.25684242    -0.60500
H1257       H  0.54749821  0.91085961  0.26597393     0.16400
O1258       O  0.59309290  0.96967790  0.25218970    -0.60600
H1259       H  0.58084853  0.97337427  0.22640858     0.43400
H1260       H  0.64175913  0.80680257  0.22937690     0.43300
C1261       C  0.65424208  0.09116603  0.23814920    -0.05700
C1262       C  0.63778230  0.11603564  0.21003841    -0.33100
C1263       C  0.60870800  0.14283647  0.21992498     0.36100
C1264       C  0.59573249  0.14577703  0.25865024    -0.06100
C1265       C  0.61350501  0.12221422  0.28707865    -0.33000
C1266       C  0.64240848  0.09526838  0.27718366     0.36000
H1267       H  0.64666577  0.11409702  0.17980444     0.16400
O1268       O  0.59353341  0.16617824  0.19150759    -0.60500
H1269       H  0.60433695  0.12388059  0.31724736     0.16400
O1270       O  0.65750399  0.07204065  0.30574015    -0.60600
H1271       H  0.68054162  0.08626573  0.31550699     0.43400
H1272       H  0.57311054  0.15031807  0.17888338     0.43300
C1273       C  0.73697976  0.09187220  0.09902189    -0.05700
C1274       C  0.72255008  0.09328286  0.06099159    -0.33100
C1275       C  0.72474983  0.12773983  0.03936553     0.36100
C1276       C  0.74045015  0.16167076  0.05611284    -0.06100
C1277       C  0.75099690  0.16127386  0.09536295    -0.33000
C1278       C  0.75010467  0.12651412  0.11662016     0.36000
H1279       H  0.71182128  0.06710584  0.04723110     0.16400
O1280       O  0.71401379  0.12731675  0.00099392    -0.60500
H1281       H  0.76280223  0.18722216  0.10863315     0.16400
O1282       O  0.76242327  0.12658750  0.15451584    -0.60600
H1283       H  0.79094964  0.12256759  0.15310000     0.43400
H1284       H  0.68802424  0.13976322  0.00044224     0.43300
C1285       C  0.73856945  0.84016697  0.05259764    -0.05700
C1286       C  0.72756439  0.83692527  0.09181485    -0.33100
C1287       C  0.71942512  0.87045126  0.11379019     0.36100
C1288       C  0.72280559  0.90744870  0.09646147    -0.06100
C1289       C  0.73017755  0.91030339  0.05662884    -0.33000
C1290       C  0.73771476  0.87711290  0.03464114     0.36000
H1291       H  0.72810985  0.80889780  0.10608609     0.16400
O1292       O  0.71224870  0.86703847  0.15292859    -0.60500
H1293       H  0.73185971  0.93855001  0.04281420     0.16400
O1294       O  0.74558205  0.88119901  0.99568526    -0.60600
H1295       H  0.77223972  0.89211049  0.99406227     0.43400
H1296       H  0.68398760  0.86171850  0.15514727     0.43300
C1297       C  0.91178143  0.88588190  0.24346348    -0.05700
C1298       C  0.88362865  0.89112823  0.27288101    -0.33100
C1299       C  0.84656118  0.90567223  0.26421040     0.36100
C1300       C  0.83705088  0.91552978  0.22560394    -0.06100
C1301       C  0.86443766  0.90815768  0.19600651    -0.33000
C1302       C  0.90129214  0.89343920  0.20454168     0.36000
H1303       H  0.89040336  0.88418645  0.30281784     0.16400
O1304       O  0.82012815  0.91069182  0.29381412    -0.60500
H1305       H  0.85798832  0.91534299  0.16605074     0.16400
O1306       O  0.92693527  0.88701451  0.17447313    -0.60600
H1307       H  0.91860389  0.86218161  0.16251269     0.43400
H1308       H  0.80507173  0.88613880  0.29473459     0.43300
C1309       C  0.91728375  0.09461453  0.26480584    -0.05700
C1310       C  0.88130410  0.11223888  0.27365403    -0.33100
C1311       C  0.84600145  0.09437343  0.26313461     0.36100
C1312       C  0.84652090  0.05862049  0.24320102    -0.06100
C1313       C  0.88248486  0.03992086  0.23721007    -0.33000
C1314       C  0.91748032  0.05758964  0.24765658     0.36000
H1315       H  0.88061380  0.14087337  0.28673026     0.16400
O1316       O  0.81158827  0.11331831  0.27000434    -0.60500
H1317       H  0.88365720  0.01161446  0.22342706     0.16400
O1318       O  0.95187166  0.03840180  0.24102925    -0.60600
H1319       H  0.95650629  0.04015752  0.21257615     0.43400
H1320       H  0.80347273  0.10514309  0.29649579     0.43300
C1321       C  0.42118029  0.85391615  0.25149638    -0.05700
C1322       C  0.38789261  0.85954582  0.27468149    -0.33100
C1323       C  0.36155236  0.88924142  0.26663220     0.36100
C1324       C  0.36794858  0.91408840  0.23457409    -0.06100
C1325       C  0.40082304  0.90787693  0.21079770    -0.33000
C1326       C  0.42728542  0.87811724  0.21899310     0.36000
H1327       H  0.38262211  0.84134161  0.29988023     0.16400
O1328       O  0.33003712  0.89396388  0.29083743    -0.60500
H1329       H  0.40637665  0.92642016  0.18593143     0.16400
O1330       O  0.46016744  0.87461540  0.19648440    -0.60600
H1331       H  0.45244244  0.85805212  0.17422221     0.43400
H1332       H  0.33903797  0.91164843  0.31171264     0.43300
C1333       C  0.42152263  0.14162103  0.25832748    -0.05700
C1334       C  0.41272622  0.11069658  0.28367901    -0.33100
C1335       C  0.38369911  0.08353110  0.27477624     0.36100
C1336       C  0.36334857  0.08617156  0.23937873    -0.06100
C1337       C  0.37098299  0.11804348  0.21483098    -0.33000
C1338       C  0.39933892  0.14573590  0.22418318     0.36000
H1339       H  0.42860836  0.10731888  0.31058398     0.16400
O1340       O  0.37688405  0.05354516  0.30013421    -0.60500
H1341       H  0.35526255  0.12129660  0.18780778     0.16400
O1342       O  0.40538391  0.17631802  0.19932933    -0.60600
H1343       H  0.42613148  0.16753659  0.18119758     0.43400
H1344       H  0.35644849  0.06326758  0.31815067     0.43300
C1345       C  0.25376494  0.83075615  0.07038392    -0.05700
C1346       C  0.29237587  0.84403760  0.07213482    -0.33100
C1347       C  0.30115483  0.87999799  0.08991999     0.36100
C1348       C  0.27083740  0.90377520  0.10452955    -0.06100
C1349       C  0.23288766  0.88890595  0.10489795    -0.33000
C1350       C  0.22450182  0.85254213  0.08919487     0.36000
H1351       H  0.31529139  0.82784161  0.05769741     0.16400
O1352       O  0.33891498  0.89271236  0.09037700    -0.60500
H1353       H  0.20924367  0.90571449  0.11730667     0.16400
O1354       O  0.18679030  0.83954871  0.09006877    -0.60600
H1355       H  0.18407098  0.82573187  0.11522889     0.43400
H1356       H  0.35053750  0.88052600  0.11371027     0.43300
C1357       C  0.25488886  0.09621031  0.11107585    -0.05700
C1358       C  0.22048395  0.11702005  0.11934419    -0.33100
C1359       C  0.21270154  0.15287274  0.10198683     0.36100
C1360       C  0.23945164  0.16910895  0.07546009    -0.06100
C1361       C  0.27534090  0.15006052  0.06960364    -0.33000
C1362       C  0.28317116  0.11399705  0.08715374     0.36000
H1363       H  0.19867089  0.10515342  0.13883042     0.16400
O1364       O  0.17867052  0.17169199  0.11110210    -0.60500
H1365       H  0.29674453  0.16211904  0.04976611     0.16400
O1366       O  0.31834106  0.09644606  0.08037873    -0.60600
H1367       H  0.31479239  0.08124265  0.05614995     0.43400
H1368       H  0.15781552  0.15619627  0.09872623     0.43300
C1369       C  0.17959486  0.91115049  0.23714219    -0.05700
C1370       C  0.15405470  0.92248294  0.26717010    -0.33100
C1371       C  0.11657695  0.90636717  0.27024935     0.36100
C1372       C  0.10411241  0.87832610  0.24300903    -0.06100
C1373       C  0.13092742  0.86515026  0.21486997    -0.33000
C1374       C  0.16832345  0.88071205  0.21227560     0.36000
H1375       H  0.16227626  0.94542445  0.28699269     0.16400
O1376       O  0.09225543  0.91897075  0.29938439    -0.60500
H1377       H  0.12283964  0.84286144  0.19422548     0.16400
O1378       O  0.19315767  0.86689588  0.18416220    -0.60600
H1379       H  0.21132152  0.84941736  0.19801886     0.43400
H1380       H  0.07854990  0.94177662  0.28842788     0.43300
C1381       C  0.17754848  0.06716366  0.25147334    -0.05700
C1382       C  0.17219645  0.10135600  0.23035320    -0.33100
C1383       C  0.13630713  0.12041274  0.23103272     0.36100
C1384       C  0.10532204  0.10557465  0.25384049    -0.06100
C1385       C  0.11195225  0.07308206  0.27750767    -0.33000
C1386       C  0.14770035  0.05367866  0.27610464     0.36000
H1387       H  0.19489915  0.11165356  0.21093708     0.16400
O1388       O  0.13171218  0.15323832  0.20892491    -0.60500
H1389       H  0.08878798  0.06148408  0.29556795     0.16400
O1390       O  0.15220497  0.01982674  0.29651206    -0.60600
H1391       H  0.16009553  0.02798661  0.32298151     0.43400
H1392       H  0.13016677  0.14392684  0.18166537     0.43300
loop_ 
_geom_bond_atom_site_label_1 
_geom_bond_atom_site_label_2 
_geom_bond_distance 
_geom_bond_site_symmetry_2 
_ccdc_geom_bond_type 
O1          Cr19   1.995       .  S
O1            C9   1.262       .  A
O2          Cr19   1.961       .  S
O2            C3   1.257       .  A
C3            O4   1.273       .  A
C3         C1369   1.484       .  S
O4          Cr20   2.042       .  S
O5          Cr20   1.969       .  S
O5            C6   1.262       .  A
C6            O7   1.269       .  A
C6         C1324   1.483       .  S
O7          Cr21   2.009   1_565  S
O8          Cr21   1.997   1_565  S
O8            C9   1.255       .  A
C9         C1348   1.490       .  S
O10         Cr19   1.951   1_545  S
O10          C18   1.257       .  A
O11         Cr19   1.993   1_545  S
O11          C12   1.262       .  A
C12          O13   1.263       .  A
C12        C1381   1.460       .  S
O13         Cr20   1.991   1_545  S
O14         Cr20   2.030   1_545  S
O14          C15   1.271       .  A
C15          O16   1.259       .  A
C15        C1336   1.491       .  S
O16         Cr21   1.969       .  S
O17         Cr21   2.038       .  S
O17          C18   1.275       .  A
C18        C1357   1.495       .  S
Cr19         O22   1.758       .  S
Cr20         O22   1.767       .  S
Cr21         O22   1.772   1_545  S
O23         Cr41   1.978   1_545  S
O23          C31   1.259       .  A
O24         Cr41   1.991   1_545  S
O24          C25   1.263       .  A
C25          O26   1.267       .  A
C25        C1312   1.488       .  S
O26         Cr42   2.005   1_545  S
O27         Cr42   2.043   1_545  S
O27          C28   1.278       .  A
C28          O29   1.256       .  A
C28        C1261   1.488       .  S
O29         Cr43   1.949       .  S
O30         Cr43   2.019       .  S
O30          C31   1.266       .  A
C31        C1273   1.480       .  S
O32         Cr41   2.015       .  S
O32          C40   1.268       .  A
O33         Cr41   1.971       .  S
O33          C34   1.264       .  A
C34          O35   1.272       .  A
C34        C1300   1.485       .  S
O35         Cr42   2.023       .  S
O36         Cr42   1.994       .  S
O36          C37   1.260       .  A
C37          O38   1.261       .  A
C37        C1249   1.479       .  S
O38         Cr43   1.998   1_565  S
O39         Cr43   1.975   1_565  S
O39          C40   1.255       .  A
C40        C1288   1.470       .  S
Cr41         O44   1.759       .  S
Cr42         O44   1.767       .  S
Cr43         O44   1.770   1_545  S
O45         Cr63   1.980       .  S
O45          C53   1.260       .  A
O46         Cr63   1.965       .  S
O46          C47   1.256       .  A
C47          O48   1.271       .  A
C47        C1237   1.495       .  S
O48         Cr64   2.027       .  S
O49         Cr64   2.035       .  S
O49          C50   1.275       .  A
C50          O51   1.257       .  A
C50        C1189   1.480       .  S
O51         Cr65   1.950       .  S
O52         Cr65   2.017       .  S
O52          C53   1.267       .  A
C53        C1228   1.478       .  S
O54         Cr63   1.993   1_554  S
O54          C62   1.262       .  A
O55         Cr63   1.980   1_554  S
O55          C56   1.267       .  A
C56          O57   1.272       .  A
C56        C1360   1.491       .  S
O57         Cr64   2.023   1_554  S
O58         Cr64   2.003   1_554  S
O58          C59   1.264       .  A
C59          O60   1.260       .  A
C59        C1201   1.491       .  S
O60         Cr65   1.987   1_554  S
O61         Cr65   1.991   1_554  S
O61          C62   1.256       .  A
C62        C1216   1.481       .  S
Cr63         O66   1.756       .  S
Cr64         O66   1.772       .  S
Cr65         O66   1.777       .  S
O67         Cr85   1.974   1_554  S
O67          C75   1.258       .  A
O68         Cr85   1.976   1_554  S
O68          C69   1.260       .  A
C69          O70   1.269       .  A
C69        C1345   1.483       .  S
O70         Cr86   2.017   1_554  S
O71         Cr86   2.034   1_554  S
O71          C72   1.274       .  A
C72          O73   1.260       .  A
C72        C1129   1.477       .  S
O73         Cr87   1.959   1_554  S
O74         Cr87   2.018   1_554  S
O74          C75   1.267       .  A
C75        C1165   1.481       .  S
O76         Cr85   1.997       .  S
O76          C84   1.264       .  A
O77         Cr85   1.966       .  S
O77          C78   1.261       .  A
C78          O79   1.272       .  A
C78        C1177   1.480       .  S
O79         Cr86   2.027       .  S
O80         Cr86   2.008       .  S
O80          C81   1.266       .  A
C81          O82   1.260       .  A
C81        C1144   1.491       .  S
O82         Cr87   1.987       .  S
O83         Cr87   1.985       .  S
O83          C84   1.257       .  A
C84        C1153   1.485       .  S
Cr85         O88   1.760       .  S
Cr86         O88   1.772       .  S
Cr87         O88   1.773       .  S
O89        Cr107   1.963       .  S
O89          C97   1.258       .  A
O90        Cr107   1.990       .  S
O90          C91   1.260       .  A
C91          O92   1.267       .  A
C91        C1225   1.470       .  S
O92        Cr108   2.005       .  S
O93        Cr108   2.027       .  S
O93          C94   1.273       .  A
C94          O95   1.257       .  A
C94        C1084   1.480       .  S
O95        Cr109   1.957       .  S
O96        Cr109   2.018       .  S
O96          C97   1.270       .  A
C97        C1105   1.485       .  S
O98        Cr107   2.001   1_655  S
O98         C106   1.263       .  A
O99        Cr107   1.957   1_655  S
O99         C100   1.259       .  A
C100        O101   1.271       .  A
C100       C1117   1.480       .  S
O101       Cr108   2.033   1_655  S
O102       Cr108   1.990   1_655  S
O102        C103   1.263       .  A
C103        O104   1.264       .  A
C103       C1069   1.474       .  S
O104       Cr109   1.996   1_655  S
O105       Cr109   1.991   1_655  S
O105        C106   1.257       .  A
C106       C1096   1.490       .  S
Cr107       O110   1.755       .  S
Cr108       O110   1.768       .  S
Cr109       O110   1.769       .  S
O111       Cr129   2.004   1_655  S
O111        C119   1.262       .  A
O112       Cr129   1.969   1_655  S
O112        C113   1.263       .  A
C113        O114   1.270       .  A
C113       C1060   1.482       .  S
O114       Cr130   2.016   1_655  S
O115       Cr130   1.990   1_655  S
O115        C116   1.264       .  A
C116        O117   1.261       .  A
C116       C1036   1.485       .  S
O117       Cr131   1.990   1_655  S
O118       Cr131   1.995   1_655  S
O118        C119   1.258       .  A
C119       C1309   1.482       .  S
O120       Cr129   1.965       .  S
O120        C128   1.257       .  A
O121       Cr129   1.976       .  S
O121        C122   1.259       .  A
C122        O123   1.267       .  A
C122       C1213   1.481       .  S
O123       Cr130   2.008       .  S
O124       Cr130   2.027       .  S
O124        C125   1.273       .  A
C125        O126   1.262       .  A
C125       C1048   1.495       .  S
O126       Cr131   1.972       .  S
O127       Cr131   2.016       .  S
O127        C128   1.268       .  A
C128       C1384   1.480       .  S
Cr129       O132   1.761       .  S
Cr130       O132   1.769       .  S
Cr131       O132   1.770       .  S
O133       Cr151   1.965       .  S
O133        C141   1.262       .  A
O134       Cr151   1.986       .  S
O134        C135   1.257       .  A
C135        O136   1.264       .  A
C135       C1168   1.470       .  S
O136       Cr152   2.007       .  S
O137       Cr152   2.019       .  S
O137        C138   1.270       .  A
C138        O139   1.259       .  A
C138       C1000   1.487       .  S
O139       Cr153   1.962       .  S
O140       Cr153   2.026       .  S
O140        C141   1.273       .  A
C141       C1372   1.491       .  S
O142       Cr151   1.990   1_655  S
O142        C150   1.258       .  A
O143       Cr151   1.958   1_655  S
O143        C144   1.260       .  A
C144        O145   1.273       .  A
C144       C1024   1.473       .  S
O145       Cr152   2.031   1_655  S
O146       Cr152   1.982   1_655  S
O146        C147   1.262       .  A
C147        O148   1.264       .  A
C147       C1009   1.471       .  S
O148       Cr153   1.995   1_655  S
O149       Cr153   1.987   1_655  S
O149        C150   1.254       .  A
C150       C1297   1.486       .  S
Cr151       O154   1.762       .  S
Cr152       O154   1.770       .  S
Cr153       O154   1.772       .  S
O155       Cr173   1.988       .  S
O155        C163   1.260       .  A
O156       Cr173   1.960       .  S
O156        C157   1.260       .  A
C157        O158   1.273       .  A
C157        C985   1.476       .  S
O158       Cr174   2.031       .  S
O159       Cr174   1.984       .  S
O159        C160   1.262       .  A
C160        O161   1.263       .  A
C160        C949   1.484       .  S
O161       Cr175   1.992       .  S
O162       Cr175   1.992       .  S
O162        C163   1.255       .  A
C163        C973   1.487       .  S
O164       Cr173   1.958   1_554  S
O164        C172   1.258       .  A
O165       Cr173   1.978   1_554  S
O165        C166   1.259       .  A
C166        O167   1.266       .  A
C166       C1285   1.478       .  S
O167       Cr174   2.007   1_554  S
O168       Cr174   2.033   1_554  S
O168        C169   1.275       .  A
C169        O170   1.259       .  A
C169        C961   1.487       .  S
O170       Cr175   1.962   1_554  S
O171       Cr175   2.017   1_554  S
O171        C172   1.271       .  A
C172       C1021   1.483       .  S
Cr173       O176   1.761       .  S
Cr174       O176   1.765       .  S
Cr175       O176   1.772       .  S
O177       Cr195   2.003       .  S
O177        C185   1.262       .  A
O178       Cr195   1.967       .  S
O178        C179   1.261       .  A
C179        O180   1.274       .  A
C179       C1108   1.479       .  S
O180       Cr196   2.036       .  S
O181       Cr196   1.985       .  S
O181        C182   1.263       .  A
C182        O183   1.264       .  A
C182        C913   1.488       .  S
O183       Cr197   1.997   1_545  S
O184       Cr197   1.995   1_545  S
O184        C185   1.256       .  A
C185       C1240   1.483       .  S
O186       Cr195   1.961   1_565  S
O186        C194   1.259       .  A
O187       Cr195   1.981   1_565  S
O187        C188   1.260       .  A
C188        O189   1.267       .  A
C188        C937   1.478       .  S
O189       Cr196   2.009   1_565  S
O190       Cr196   2.041   1_565  S
O190        C191   1.275       .  A
C191        O192   1.258       .  A
C191        C925   1.497       .  S
O192       Cr197   1.965       .  S
O193       Cr197   2.024       .  S
O193        C194   1.272       .  A
C194       C1180   1.487       .  S
Cr195       O198   1.758       .  S
Cr196       O198   1.768       .  S
Cr197       O198   1.766   1_565  S
O199       Cr217   1.961   1_655  S
O199        C207   1.255       .  A
O200       Cr217   1.976   1_655  S
O200        C201   1.260       .  A
C201        O202   1.267       .  A
C201        C976   1.483       .  S
O202       Cr218   2.011   1_655  S
O203       Cr218   2.033   1_655  S
O203        C204   1.274       .  A
C204        O205   1.256       .  A
C204        C877   1.486       .  S
O205       Cr219   1.954   1_655  S
O206       Cr219   2.010   1_655  S
O206        C207   1.266       .  A
C207        C901   1.473       .  S
O208       Cr217   2.007       .  S
O208        C216   1.264       .  A
O209       Cr217   1.967       .  S
O209        C210   1.262       .  A
C210        O211   1.273       .  A
C210       C1156   1.484       .  S
O211       Cr218   2.027       .  S
O212       Cr218   1.994       .  S
O212        C213   1.263       .  A
C213        O214   1.262       .  A
C213        C889   1.484       .  S
O214       Cr219   1.987       .  S
O215       Cr219   1.976       .  S
O215        C216   1.254       .  A
C216        C940   1.468       .  S
Cr217       O220   1.759       .  S
Cr218       O220   1.765       .  S
Cr219       O220   1.766       .  S
O221       Cr239   1.954   1_554  S
O221        C229   1.257       .  A
O222       Cr239   1.996   1_554  S
O222        C223   1.260       .  A
C223        O224   1.266       .  A
C223       C1276   1.474       .  S
O224       Cr240   2.007   1_554  S
O225       Cr240   2.031   1_554  S
O225        C226   1.274       .  A
C226        O227   1.255       .  A
C226        C841   1.489       .  S
O227       Cr241   1.954   1_554  S
O228       Cr241   2.027   1_554  S
O228        C229   1.274       .  A
C229       C1057   1.487       .  S
O230       Cr239   1.996       .  S
O230        C238   1.260       .  A
O231       Cr239   1.956       .  S
O231        C232   1.259       .  A
C232        O233   1.275       .  A
C232        C865   1.485       .  S
O233       Cr240   2.047       .  S
O234       Cr240   1.983       .  S
O234        C235   1.264       .  A
C235        O236   1.267       .  A
C235        C856   1.476       .  S
O236       Cr241   2.004       .  S
O237       Cr241   1.977       .  S
O237        C238   1.253       .  A
C238       C1120   1.482       .  S
Cr239       O242   1.758       .  S
Cr240       O242   1.769       .  S
Cr241       O242   1.769       .  S
O243       Cr261   1.950   1_565  S
O243        C251   1.257       .  A
O244       Cr261   1.987   1_565  S
O244        C245   1.259       .  A
C245        O246   1.262       .  A
C245        C904   1.458       .  S
O246       Cr262   1.991   1_565  S
O247       Cr262   2.046   1_565  S
O247        C248   1.278       .  A
C248        O249   1.255       .  A
C248        C820   1.489       .  S
O249       Cr263   1.947       .  S
O250       Cr263   2.025       .  S
O250        C251   1.272       .  A
C251        C988   1.483       .  S
O252       Cr261   1.989       .  S
O252        C260   1.259       .  A
O253       Cr261   1.954       .  S
O253        C254   1.258       .  A
C254        O255   1.276       .  A
C254       C1093   1.490       .  S
O255       Cr262   2.055       .  S
O256       Cr262   1.984       .  S
O256        C257   1.261       .  A
C257        O258   1.263       .  A
C257        C832   1.468       .  S
O258       Cr263   2.001   1_545  S
O259       Cr263   1.997   1_545  S
O259        C260   1.258       .  A
C260        C868   1.487       .  S
Cr261       O264   1.751       .  S
Cr262       O264   1.765       .  S
Cr263       O264   1.767   1_565  S
O265       Cr283   1.953       .  S
O265        C273   1.258       .  A
O266       Cr283   1.991       .  S
O266        C267   1.259       .  A
C267        O268   1.264       .  A
C267        C796   1.467       .  S
O268       Cr284   2.000       .  S
O269       Cr284   2.041       .  S
O269        C270   1.276       .  A
C270        O271   1.253       .  A
C270       C1264   1.488       .  S
O271       Cr285   1.945       .  S
O272       Cr285   2.027       .  S
O272        C273   1.272       .  A
C273        C769   1.487       .  S
O274       Cr283   1.999       .  S
O274        C282   1.262       .  A
O275       Cr283   1.966       .  S
O275        C276   1.263       .  A
C276        O277   1.275       .  A
C276        C805   1.495       .  S
O277       Cr284   2.043       .  S
O278       Cr284   1.988       .  S
O278        C279   1.263       .  A
C279        O280   1.266       .  A
C279       C1333   1.491       .  S
O280       Cr285   2.003       .  S
O281       Cr285   1.970       .  S
O281        C282   1.251       .  A
C282        C784   1.469       .  S
Cr283       O286   1.761       .  S
Cr284       O286   1.765       .  S
Cr285       O286   1.773       .  S
O287       Cr305   2.008       .  S
O287        C295   1.263       .  A
O288       Cr305   1.965       .  S
O288        C289   1.259       .  A
C289        O290   1.269       .  A
C289        C748   1.484       .  S
O290       Cr306   2.029       .  S
O291       Cr306   1.968       .  S
O291        C292   1.262       .  A
C292        O293   1.271       .  A
C292       C1132   1.489       .  S
O293       Cr307   2.018       .  S
O294       Cr307   1.986       .  S
O294        C295   1.254       .  A
C295        C736   1.479       .  S
O296       Cr305   1.950       .  S
O296        C304   1.255       .  A
O297       Cr305   1.995       .  S
O297        C298   1.263       .  A
C298        O299   1.266       .  A
C298        C757   1.462       .  S
O299       Cr306   1.993       .  S
O300       Cr306   2.025       .  S
O300        C301   1.269       .  A
C301        O302   1.256       .  A
C301       C1204   1.487       .  S
O302       Cr307   1.969       .  S
O303       Cr307   2.037       .  S
O303        C304   1.275       .  A
C304        C808   1.497       .  S
Cr305       O308   1.762       .  S
Cr306       O308   1.771       .  S
Cr307       O308   1.768       .  S
O309       Cr327   1.983       .  S
O309        C317   1.255       .  A
O310       Cr327   1.978       .  S
O310        C311   1.266       .  A
C311        O312   1.271       .  A
C311        C721   1.485       .  S
O312       Cr328   2.022       .  S
O313       Cr328   1.984       .  S
O313        C314   1.260       .  A
C314        O315   1.261       .  A
C314       C1081   1.481       .  S
O315       Cr329   1.986       .  S
O316       Cr329   1.998       .  S
O316        C317   1.258       .  A
C317        C712   1.484       .  S
O318       Cr327   1.962       .  S
O318        C326   1.258       .  A
O319       Cr327   1.952       .  S
O319        C320   1.255       .  A
C320        O321   1.266       .  A
C320        C781   1.477       .  S
O321       Cr328   2.005       .  S
O322       Cr328   2.026       .  S
O322        C323   1.274       .  A
C323        O324   1.262       .  A
C323       C1045   1.495       .  S
O324       Cr329   1.972       .  S
O325       Cr329   2.016       .  S
O325        C326   1.269       .  A
C326        C760   1.472       .  S
Cr327       O330   1.764       .  S
Cr328       O330   1.769       .  S
Cr329       O330   1.778       .  S
O331       Cr349   1.990       .  S
O331        C339   1.259       .  A
O332       Cr349   1.967       .  S
O332        C333   1.261       .  A
C333        O334   1.269       .  A
C333        C688   1.475       .  S
O334       Cr350   2.016       .  S
O335       Cr350   1.985       .  S
O335        C336   1.262       .  A
C336        O337   1.263       .  A
C336        C997   1.479       .  S
O337       Cr351   1.995       .  S
O338       Cr351   1.991       .  S
O338        C339   1.257       .  A
C339        C745   1.482       .  S
O340       Cr349   1.965       .  S
O340        C348   1.258       .  A
O341       Cr349   1.972       .  S
O341        C342   1.259       .  A
C342        O343   1.266       .  A
C342        C700   1.477       .  S
O343       Cr350   2.007       .  S
O344       Cr350   2.014       .  S
O344        C345   1.271       .  A
C345        O346   1.261       .  A
C345        C892   1.476       .  S
O346       Cr351   1.970       .  S
O347       Cr351   2.021       .  S
O347        C348   1.268       .  A
C348        C673   1.468       .  S
Cr349       O352   1.757       .  S
Cr350       O352   1.770       .  S
Cr351       O352   1.775       .  S
O353       Cr371   2.009       .  S
O353        C361   1.263       .  A
O354       Cr371   1.965       .  S
O354        C355   1.261       .  A
C355        O356   1.268       .  A
C355        C709   1.474       .  S
O356       Cr372   2.015       .  S
O357       Cr372   1.971       .  S
O357        C358   1.262       .  A
C358        O359   1.266       .  A
C358       C1192   1.481       .  S
O359       Cr373   2.003       .  S
O360       Cr373   1.983       .  S
O360        C361   1.254       .  A
C361        C652   1.474       .  S
O362       Cr371   1.947       .  S
O362        C370   1.254       .  A
O363       Cr371   1.996       .  S
O363        C364   1.263       .  A
C364        O365   1.268       .  A
C364        C676   1.471       .  S
O365       Cr372   1.997       .  S
O366       Cr372   2.025       .  S
O366        C367   1.271       .  A
C367        O368   1.255       .  A
C367       C1141   1.488       .  S
O368       Cr373   1.971       .  S
O369       Cr373   2.011       .  S
O369        C370   1.269       .  A
C370        C661   1.481       .  S
Cr371       O374   1.767       .  S
Cr372       O374   1.766       .  S
Cr373       O374   1.771       .  S
O375       Cr393   1.950       .  S
O375        C383   1.256       .  A
O376       Cr393   1.972       .  S
O376        C377   1.258       .  A
C377        O378   1.272       .  A
C377        C733   1.489       .  S
O378       Cr394   2.026       .  S
O379       Cr394   2.022       .  S
O379        C380   1.271       .  A
C380        O381   1.258       .  A
C380       C1321   1.478       .  S
O381       Cr395   1.955       .  S
O382       Cr395   2.022       .  S
O382        C383   1.272       .  A
C383        C685   1.481       .  S
O384       Cr393   1.984       .  S
O384        C392   1.256       .  A
O385       Cr393   1.963       .  S
O385        C386   1.260       .  A
C386        O387   1.269       .  A
C386        C637   1.478       .  S
O387       Cr394   2.012       .  S
O388       Cr394   1.994       .  S
O388        C389   1.263       .  A
C389        O390   1.264       .  A
C389       C1252   1.480       .  S
O390       Cr395   1.998       .  S
O391       Cr395   1.991       .  S
O391        C392   1.255       .  A
C392        C625   1.481       .  S
Cr393       O396   1.757       .  S
Cr394       O396   1.767       .  S
Cr395       O396   1.770       .  S
O397       Cr415   1.961       .  S
O397        C405   1.258       .  A
O398       Cr415   1.986       .  S
O398        C399   1.260       .  A
C399        O400   1.264       .  A
C399        C604   1.467       .  S
O400       Cr416   1.998       .  S
O401       Cr416   2.036       .  S
O401        C402   1.276       .  A
C402        O403   1.255       .  A
C402        C844   1.485       .  S
O403       Cr417   1.949       .  S
O404       Cr417   2.025       .  S
O404        C405   1.270       .  A
C405        C793   1.480       .  S
O406       Cr415   1.993       .  S
O406        C414   1.261       .  A
O407       Cr415   1.961       .  S
O407        C408   1.260       .  A
C408        O409   1.273       .  A
C408        C616   1.480       .  S
O409       Cr416   2.040       .  S
O410       Cr416   1.985       .  S
O410        C411   1.262       .  A
C411        O412   1.266       .  A
C411        C964   1.491       .  S
O412       Cr417   2.006       .  S
O413       Cr417   1.972       .  S
O413        C414   1.254       .  A
C414        C640   1.471       .  S
Cr415       O418   1.759       .  S
Cr416       O418   1.769       .  S
Cr417       O418   1.775       .  S
O419       Cr437   1.969       .  S
O419        C427   1.259       .  A
O420       Cr437   1.978       .  S
O420        C421   1.257       .  A
C421        O422   1.266       .  A
C421        C589   1.468       .  S
O422       Cr438   2.007       .  S
O423       Cr438   2.023       .  S
O423        C424   1.273       .  A
C424        O425   1.260       .  A
C424        C880   1.487       .  S
O425       Cr439   1.960       .  S
O426       Cr439   2.016       .  S
O426        C427   1.268       .  A
C427        C577   1.479       .  S
O428       Cr437   1.996       .  S
O428        C436   1.261       .  A
O429       Cr437   1.965       .  S
O429        C430   1.262       .  A
C430        O431   1.270       .  A
C430        C628   1.477       .  S
O431       Cr438   2.017       .  S
O432       Cr438   1.994       .  S
O432        C433   1.263       .  A
C433        O434   1.261       .  A
C433       C1012   1.481       .  S
O434       Cr439   1.986       .  S
O435       Cr439   1.993       .  S
O435        C436   1.258       .  A
C436        C613   1.489       .  S
Cr437       O440   1.761       .  S
Cr438       O440   1.770       .  S
Cr439       O440   1.772       .  S
O441       Cr459   1.961       .  S
O441        C449   1.259       .  A
O442       Cr459   1.985       .  S
O442        C443   1.259       .  A
C443        O444   1.265       .  A
C443        C580   1.463       .  S
O444       Cr460   1.999       .  S
O445       Cr460   2.026       .  S
O445        C446   1.272       .  A
C446        O447   1.257       .  A
C446        C952   1.482       .  S
O447       Cr461   1.957       .  S
O448       Cr461   2.030       .  S
O448        C449   1.272       .  A
C449        C553   1.492       .  S
O450       Cr459   1.986       .  S
O450        C458   1.259       .  A
O451       Cr459   1.959       .  S
O451        C452   1.257       .  A
C452        O453   1.271       .  A
C452        C565   1.482       .  S
O453       Cr460   2.039       .  S
O454       Cr460   1.986       .  S
O454        C455   1.264       .  A
C455        O456   1.268       .  A
C455        C853   1.482       .  S
O456       Cr461   2.004       .  S
O457       Cr461   1.980       .  S
O457        C458   1.254       .  A
C458        C541   1.471       .  S
Cr459       O462   1.759       .  S
Cr460       O462   1.773       .  S
Cr461       O462   1.771       .  S
O463       Cr481   1.963       .  S
O463        C471   1.256       .  A
O464       Cr481   1.988       .  S
O464        C465   1.261       .  A
C465        O466   1.269       .  A
C465        C556   1.479       .  S
O466       Cr482   2.012       .  S
O467       Cr482   2.030       .  S
O467        C468   1.275       .  A
C468        O469   1.255       .  A
C468        C817   1.487       .  S
O469       Cr483   1.954       .  S
O470       Cr483   2.021       .  S
O470        C471   1.268       .  A
C471        C592   1.476       .  S
O472       Cr481   2.007       .  S
O472        C480   1.264       .  A
O473       Cr481   1.964       .  S
O473        C474   1.262       .  A
C474        O475   1.270       .  A
C474        C664   1.478       .  S
O475       Cr482   2.017       .  S
O476       Cr482   2.001       .  S
O476        C477   1.264       .  A
C477        O478   1.264       .  A
C477        C928   1.488       .  S
O478       Cr483   1.995       .  S
O479       Cr483   1.976       .  S
O479        C480   1.252       .  A
C480        C697   1.468       .  S
Cr481       O484   1.759       .  S
Cr482       O484   1.769       .  S
Cr483       O484   1.769       .  S
O485       Cr503   1.955       .  S
O485        C493   1.258       .  A
O486       Cr503   1.980       .  S
O486        C487   1.259       .  A
C487        O488   1.269       .  A
C487        C649   1.482       .  S
O488       Cr504   2.016       .  S
O489       Cr504   2.029       .  S
O489        C490   1.273       .  A
C490        O491   1.259       .  A
C490        C916   1.484       .  S
O491       Cr505   1.958       .  S
O492       Cr505   2.036       .  S
O492        C493   1.276       .  A
C493        C724   1.491       .  S
O494       Cr503   1.987       .  S
O494        C502   1.258       .  A
O495       Cr503   1.957       .  S
O495        C496   1.258       .  A
C496        O497   1.272       .  A
C496        C544   1.478       .  S
O497       Cr504   2.027       .  S
O498       Cr504   1.985       .  S
O498        C499   1.262       .  A
C499        O500   1.266       .  A
C499        C829   1.481       .  S
O500       Cr505   2.005       .  S
O501       Cr505   1.997       .  S
O501        C502   1.256       .  A
C502        C529   1.488       .  S
Cr503       O506   1.757       .  S
Cr504       O506   1.768       .  S
Cr505       O506   1.768       .  S
O507       Cr525   1.967       .  S
O507        C515   1.256       .  A
O508       Cr525   1.984       .  S
O508        C509   1.261       .  A
C509        O510   1.264       .  A
C509        C772   1.466       .  S
O510       Cr526   1.996       .  S
O511       Cr526   2.035       .  S
O511        C512   1.276       .  A
C512        O513   1.260       .  A
C512       C1033   1.480       .  S
O513       Cr527   1.959       .  S
O514       Cr527   2.012       .  S
O514        C515   1.264       .  A
C515        C601   1.471       .  S
O516       Cr525   2.002       .  S
O516        C524   1.266       .  A
O517       Cr525   1.966       .  S
O517        C518   1.260       .  A
C518        O519   1.271       .  A
C518        C532   1.488       .  S
O519       Cr526   2.026       .  S
O520       Cr526   1.996       .  S
O520        C521   1.262       .  A
C521        O522   1.260       .  A
C521       C1072   1.472       .  S
O522       Cr527   1.986       .  S
O523       Cr527   1.982       .  S
O523        C524   1.258       .  A
C524        C568   1.486       .  S
Cr525       O528   1.757       .  S
Cr526       O528   1.767       .  S
Cr527       O528   1.773       .  S
C529        C530   1.404       .  A
C529        C534   1.413       .  A
C530        C531   1.395       .  A
C530        H535   1.084       .  S
C531        C532   1.413       .  A
C531        O536   1.372       .  S
C532        C533   1.407       .  A
C533        C534   1.407       .  A
C533        H537   1.083       .  S
C534        O538   1.371       .  S
O536        H540   0.992       .  S
O538        H539   0.992       .  S
C541        C542   1.401       .  A
C541        C546   1.406       .  A
C542        C543   1.391       .  A
C542        H547   1.083       .  S
C543        C544   1.412       .  A
C543        O548   1.372       .  S
C544        C545   1.408       .  A
C545        C546   1.402       .  A
C545        H549   1.083       .  S
C546        O550   1.371       .  S
O548        H552   0.992       .  S
O550        H551   0.992       .  S
C553        C554   1.406       .  A
C553        C558   1.415       .  A
C554        C555   1.395       .  A
C554        H559   1.083       .  S
C555        C556   1.407       .  A
C555        O560   1.372       .  S
C556        C557   1.405       .  A
C557        C558   1.412       .  A
C557        H561   1.083       .  S
C558        O562   1.371       .  S
O560        H564   0.992       .  S
O562        H563   0.992       .  S
C565        C566   1.405       .  A
C565        C570   1.409       .  A
C566        C567   1.392       .  A
C566        H571   1.084       .  S
C567        C568   1.410       .  A
C567        O572   1.371       .  S
C568        C569   1.411       .  A
C569        C570   1.408       .  A
C569        H573   1.083       .  S
C570        O574   1.371       .  S
O572        H576   0.992       .  S
O574        H575   0.992       .  S
C577        C578   1.407       .  A
C577        C582   1.408       .  A
C578        C579   1.398       .  A
C578        H583   1.083       .  S
C579        C580   1.402       .  A
C579        O584   1.372       .  S
C580        C581   1.404       .  A
C581        C582   1.402       .  A
C581        H585   1.084       .  S
C582        O586   1.371       .  S
O584        H588   0.991       .  S
O586        H587   0.992       .  S
C589        C590   1.408       .  A
C589        C594   1.402       .  A
C590        C591   1.402       .  A
C590        H595   1.084       .  S
C591        C592   1.404       .  A
C591        O596   1.372       .  S
C592        C593   1.408       .  A
C593        C594   1.400       .  A
C593        H597   1.084       .  S
C594        O598   1.371       .  S
O596        H600   0.992       .  S
O598        H599   0.991       .  S
C601        C602   1.405       .  A
C601        C606   1.403       .  A
C602        C603   1.404       .  A
C602        H607   1.083       .  S
C603        C604   1.402       .  A
C603        O608   1.375       .  S
C604        C605   1.407       .  A
C605        C606   1.399       .  A
C605        H609   1.084       .  S
C606        O610   1.371       .  S
O608        H612   0.992       .  S
O610        H611   0.992       .  S
C613        C614   1.412       .  A
C613        C618   1.412       .  A
C614        C615   1.409       .  A
C614        H619   1.083       .  S
C615        C616   1.407       .  A
C615        O620   1.371       .  S
C616        C617   1.403       .  A
C617        C618   1.393       .  A
C617        H621   1.084       .  S
C618        O622   1.372       .  S
O620        H624   0.992       .  S
O622        H623   0.991       .  S
C625        C626   1.404       .  A
C625        C630   1.412       .  A
C626        C627   1.392       .  A
C626        H631   1.084       .  S
C627        C628   1.410       .  A
C627        O632   1.372       .  S
C628        C629   1.406       .  A
C629        C630   1.404       .  A
C629        H633   1.083       .  S
C630        O634   1.371       .  S
O632        H636   0.992       .  S
O634        H635   0.992       .  S
C637        C638   1.409       .  A
C637        C642   1.412       .  A
C638        C639   1.400       .  A
C638        H643   1.083       .  S
C639        C640   1.407       .  A
C639        O644   1.372       .  S
C640        C641   1.401       .  A
C641        C642   1.391       .  A
C641        H645   1.084       .  S
C642        O646   1.372       .  S
O644        H648   0.992       .  S
O646        H647   0.992       .  S
C649        C650   1.403       .  A
C649        C654   1.416       .  A
C650        C651   1.408       .  A
C650        H655   1.083       .  S
C651        C652   1.412       .  A
C651        O656   1.371       .  S
C652        C653   1.396       .  A
C653        C654   1.398       .  A
C653        H657   1.084       .  S
C654        O658   1.373       .  S
O656        H660   0.992       .  S
O658        H659   0.992       .  S
C661        C662   1.403       .  A
C661        C666   1.416       .  A
C662        C663   1.401       .  A
C662        H667   1.083       .  S
C663        C664   1.414       .  A
C663        O668   1.371       .  S
C664        C665   1.400       .  A
C665        C666   1.393       .  A
C665        H669   1.084       .  S
C666        O670   1.373       .  S
O668        H672   0.992       .  S
O670        H671   0.992       .  S
C673        C674   1.405       .  A
C673        C678   1.404       .  A
C674        C675   1.399       .  A
C674        H679   1.084       .  S
C675        C676   1.404       .  A
C675        O680   1.371       .  S
C676        C677   1.409       .  A
C677        C678   1.399       .  A
C677        H681   1.085       .  S
C678        O682   1.372       .  S
O680        H684   0.991       .  S
O682        H683   0.992       .  S
C685        C686   1.403       .  A
C685        C690   1.416       .  A
C686        C687   1.400       .  A
C686        H691   1.083       .  S
C687        C688   1.412       .  A
C687        O692   1.371       .  S
C688        C689   1.400       .  A
C689        C690   1.395       .  A
C689        H693   1.084       .  S
C690        O694   1.373       .  S
O692        H696   0.992       .  S
O694        H695   0.992       .  S
C697        C698   1.409       .  A
C697        C702   1.399       .  A
C698        C699   1.408       .  A
C698        H703   1.084       .  S
C699        C700   1.406       .  A
C699        O704   1.371       .  S
C700        C701   1.409       .  A
C701        C702   1.390       .  A
C701        H705   1.084       .  S
C702        O706   1.372       .  S
O704        H708   0.992       .  S
O706        H707   0.992       .  S
C709        C710   1.402       .  A
C709        C714   1.409       .  A
C710        C711   1.394       .  A
C710        H715   1.084       .  S
C711        C712   1.414       .  A
C711        O716   1.373       .  S
C712        C713   1.407       .  A
C713        C714   1.404       .  A
C713        H717   1.083       .  S
C714        O718   1.371       .  S
O716        H720   0.992       .  S
O718        H719   0.992       .  S
C721        C722   1.401       .  A
C721        C726   1.416       .  A
C722        C723   1.399       .  A
C722        H727   1.084       .  S
C723        C724   1.418       .  A
C723        O728   1.372       .  S
C724        C725   1.404       .  A
C725        C726   1.404       .  A
C725        H729   1.083       .  S
C726        O730   1.372       .  S
O728        H732   0.992       .  S
O730        H731   0.992       .  S
C733        C734   1.404       .  A
C733        C738   1.419       .  A
C734        C735   1.411       .  A
C734        H739   1.083       .  S
C735        C736   1.414       .  A
C735        O740   1.371       .  S
C736        C737   1.395       .  A
C737        C738   1.397       .  A
C737        H741   1.084       .  S
C738        O742   1.374       .  S
O740        H744   0.992       .  S
O742        H743   0.992       .  S
C745        C746   1.407       .  A
C745        C750   1.411       .  A
C746        C747   1.406       .  A
C746        H751   1.083       .  S
C747        C748   1.413       .  A
C747        O752   1.371       .  S
C748        C749   1.404       .  A
C749        C750   1.393       .  A
C749        H753   1.084       .  S
C750        O754   1.372       .  S
O752        H756   0.992       .  S
O754        H755   0.992       .  S
C757        C758   1.397       .  A
C757        C762   1.410       .  A
C758        C759   1.399       .  A
C758        H763   1.084       .  S
C759        C760   1.413       .  A
C759        O764   1.373       .  S
C760        C761   1.400       .  A
C761        C762   1.398       .  A
C761        H765   1.084       .  S
C762        O766   1.372       .  S
O764        H768   0.992       .  S
O766        H767   0.992       .  S
C769        C770   1.409       .  A
C769        C774   1.412       .  A
C770        C771   1.393       .  A
C770        H775   1.084       .  S
C771        C772   1.402       .  A
C771        O776   1.372       .  S
C772        C773   1.405       .  A
C773        C774   1.407       .  A
C773        H777   1.084       .  S
C774        O778   1.371       .  S
O776        H780   0.992       .  S
O778        H779   0.992       .  S
C781        C782   1.411       .  A
C781        C786   1.405       .  A
C782        C783   1.386       .  A
C782        H787   1.084       .  S
C783        C784   1.400       .  A
C783        O788   1.373       .  S
C784        C785   1.411       .  A
C785        C786   1.406       .  A
C785        H789   1.084       .  S
C786        O790   1.371       .  S
O788        H792   0.991       .  S
O790        H791   0.991       .  S
C793        C794   1.401       .  A
C793        C798   1.413       .  A
C794        C795   1.402       .  A
C794        H799   1.083       .  S
C795        C796   1.410       .  A
C795        O800   1.370       .  S
C796        C797   1.396       .  A
C797        C798   1.398       .  A
C797        H801   1.084       .  S
C798        O802   1.368       .  S
O800        H804   0.992       .  S
O802        H803   0.992       .  S
C805        C806   1.404       .  A
C805        C810   1.415       .  A
C806        C807   1.397       .  A
C806        H811   1.084       .  S
C807        C808   1.418       .  A
C807        O812   1.372       .  S
C808        C809   1.407       .  A
C809        C810   1.410       .  A
C809        H813   1.083       .  S
C810        O814   1.371       .  S
O812        H816   0.992       .  S
O814        H815   0.992       .  S
C817        C818   1.400       .  A
C817        C822   1.419       .  A
C818        C819   1.397       .  A
C818        H823   1.083       .  S
C819        C820   1.419       .  A
C819        O824   1.372       .  S
C820        C821   1.402       .  A
C821        C822   1.403       .  A
C821        H825   1.083       .  S
C822        O826   1.372       .  S
O824        H828   0.992       .  S
O826        H827   0.992       .  S
C829        C830   1.406       .  A
C829        C834   1.412       .  A
C830        C831   1.399       .  A
C830        H835   1.084       .  S
C831        C832   1.405       .  A
C831        O836   1.372       .  S
C832        C833   1.401       .  A
C833        C834   1.402       .  A
C833        H837   1.084       .  S
C834        O838   1.372       .  S
O836        H840   0.992       .  S
O838        H839   0.992       .  S
C841        C842   1.402       .  A
C841        C846   1.419       .  A
C842        C843   1.399       .  A
C842        H847   1.083       .  S
C843        C844   1.417       .  A
C843        O848   1.372       .  S
C844        C845   1.400       .  A
C845        C846   1.401       .  A
C845        H849   1.084       .  S
C846        O850   1.372       .  S
O848        H852   0.992       .  S
O850        H851   0.992       .  S
C853        C854   1.406       .  A
C853        C858   1.410       .  A
C854        C855   1.400       .  A
C854        H859   1.084       .  S
C855        C856   1.405       .  A
C855        O860   1.372       .  S
C856        C857   1.406       .  A
C857        C858   1.405       .  A
C857        H861   1.084       .  S
C858        O862   1.372       .  S
O860        H864   0.992       .  S
O862        H863   0.992       .  S
C865        C866   1.404       .  A
C865        C870   1.410       .  A
C866        C867   1.390       .  A
C866        H871   1.083       .  S
C867        C868   1.411       .  A
C867        O872   1.372       .  S
C868        C869   1.410       .  A
C869        C870   1.410       .  A
C869        H873   1.083       .  S
C870        O874   1.371       .  S
O872        H876   0.992       .  S
O874        H875   0.992       .  S
C877        C878   1.410       .  A
C877        C882   1.407       .  A
C878        C879   1.399       .  A
C878        H883   1.083       .  S
C879        C880   1.409       .  A
C879        O884   1.372       .  S
C880        C881   1.410       .  A
C881        C882   1.399       .  A
C881        H885   1.083       .  S
C882        O886   1.371       .  S
O884        H888   0.992       .  S
O886        H887   0.992       .  S
C889        C890   1.408       .  A
C889        C894   1.411       .  A
C890        C891   1.395       .  A
C890        H895   1.083       .  S
C891        C892   1.407       .  A
C891        O896   1.372       .  S
C892        C893   1.406       .  A
C893        C894   1.403       .  A
C893        H897   1.084       .  S
C894        O898   1.371       .  S
O896        H900   0.992       .  S
O898        H899   0.992       .  S
C901        C902   1.401       .  A
C901        C906   1.414       .  A
C902        C903   1.399       .  A
C902        H907   1.083       .  S
C903        C904   1.409       .  A
C903        O908   1.372       .  S
C904        C905   1.396       .  A
C905        C906   1.397       .  A
C905        H909   1.084       .  S
C906        O910   1.373       .  S
O908        H912   0.991       .  S
O910        H911   0.992       .  S
C913        C914   1.409       .  A
C913        C918   1.410       .  A
C914        C915   1.402       .  A
C914        H919   1.083       .  S
C915        C916   1.410       .  A
C915        O920   1.372       .  S
C916        C917   1.407       .  A
C917        C918   1.399       .  A
C917        H921   1.084       .  S
C918        O922   1.371       .  S
O920        H924   0.992       .  S
O922        H923   0.992       .  S
C925        C926   1.413       .  A
C925        C930   1.410       .  A
C926        C927   1.404       .  A
C926        H931   1.083       .  S
C927        C928   1.407       .  A
C927        O932   1.372       .  S
C928        C929   1.408       .  A
C929        C930   1.405       .  A
C929        H933   1.084       .  S
C930        O934   1.371       .  S
O932        H936   0.992       .  S
O934        H935   0.992       .  S
C937        C938   1.409       .  A
C937        C942   1.407       .  A
C938        C939   1.392       .  A
C938        H943   1.084       .  S
C939        C940   1.400       .  A
C939        O944   1.372       .  S
C940        C941   1.408       .  A
C941        C942   1.407       .  A
C941        H945   1.084       .  S
C942        O946   1.371       .  S
O944        H948   0.992       .  S
O946        H947   0.992       .  S
C949        C950   1.408       .  A
C949        C954   1.409       .  A
C950        C951   1.399       .  A
C950        H955   1.083       .  S
C951        C952   1.409       .  A
C951        O956   1.372       .  S
C952        C953   1.407       .  A
C953        C954   1.399       .  A
C953        H957   1.083       .  S
C954        O958   1.372       .  S
O956        H960   0.992       .  S
O958        H959   0.992       .  S
C961        C962   1.408       .  A
C961        C966   1.409       .  A
C962        C963   1.401       .  A
C962        H967   1.084       .  S
C963        C964   1.412       .  A
C963        O968   1.372       .  S
C964        C965   1.408       .  A
C965        C966   1.403       .  A
C965        H969   1.083       .  S
C966        O970   1.371       .  S
O968        H972   0.992       .  S
O970        H971   0.992       .  S
C973        C974   1.401       .  A
C973        C978   1.416       .  A
C974        C975   1.392       .  A
C974        H979   1.084       .  S
C975        C976   1.413       .  A
C975        O980   1.374       .  S
C976        C977   1.404       .  A
C977        C978   1.410       .  A
C977        H981   1.083       .  S
C978        O982   1.371       .  S
O980        H984   0.992       .  S
O982        H983   0.991       .  S
C985        C986   1.406       .  A
C985        C990   1.406       .  A
C986        C987   1.403       .  A
C986        H991   1.083       .  S
C987        C988   1.410       .  A
C987        O992   1.371       .  S
C988        C989   1.408       .  A
C989        C990   1.394       .  A
C989        H993   1.084       .  S
C990        O994   1.373       .  S
O992        H996   0.992       .  S
O994        H995   0.992       .  S
C997        C998   1.406       .  A
C997       C1002   1.406       .  A
C998        C999   1.401       .  A
C998       H1003   1.084       .  S
C999       C1000   1.411       .  A
C999       O1004   1.372       .  S
C1000      C1001   1.409       .  A
C1001      C1002   1.399       .  A
C1001      H1005   1.083       .  S
C1002      O1006   1.372       .  S
O1004      H1008   0.992       .  S
O1006      H1007   0.992       .  S
C1009      C1010   1.405       .  A
C1009      C1014   1.403       .  A
C1010      C1011   1.404       .  A
C1010      H1015   1.084       .  S
C1011      C1012   1.409       .  A
C1011      O1016   1.371       .  S
C1012      C1013   1.408       .  A
C1013      C1014   1.397       .  A
C1013      H1017   1.084       .  S
C1014      O1018   1.372       .  S
O1016      H1020   0.992       .  S
O1018      H1019   0.992       .  S
C1021      C1022   1.405       .  A
C1021      C1026   1.415       .  A
C1022      C1023   1.402       .  A
C1022      H1027   1.083       .  S
C1023      C1024   1.409       .  A
C1023      O1028   1.370       .  S
C1024      C1025   1.401       .  A
C1025      C1026   1.393       .  A
C1025      H1029   1.084       .  S
C1026      O1030   1.372       .  S
O1028      H1032   0.991       .  S
O1030      H1031   0.992       .  S
C1033      C1034   1.402       .  A
C1033      C1038   1.412       .  A
C1034      C1035   1.402       .  A
C1034      H1039   1.084       .  S
C1035      C1036   1.416       .  A
C1035      O1040   1.372       .  S
C1036      C1037   1.403       .  A
C1037      C1038   1.398       .  A
C1037      H1041   1.083       .  S
C1038      O1042   1.372       .  S
O1040      H1044   0.992       .  S
O1042      H1043   0.992       .  S
C1045      C1046   1.410       .  A
C1045      C1050   1.411       .  A
C1046      C1047   1.405       .  A
C1046      H1051   1.083       .  S
C1047      C1048   1.412       .  A
C1047      O1052   1.372       .  S
C1048      C1049   1.409       .  A
C1049      C1050   1.401       .  A
C1049      H1053   1.083       .  S
C1050      O1054   1.371       .  S
O1052      H1056   0.992       .  S
O1054      H1055   0.992       .  S
C1057      C1058   1.404       .  A
C1057      C1062   1.416       .  A
C1058      C1059   1.401       .  A
C1058      H1063   1.083       .  S
C1059      C1060   1.414       .  A
C1059      O1064   1.371       .  S
C1060      C1061   1.401       .  A
C1061      C1062   1.397       .  A
C1061      H1065   1.084       .  S
C1062      O1066   1.372       .  S
O1064      H1068   0.992       .  S
O1066      H1067   0.990       .  S
C1069      C1070   1.405       .  A
C1069      C1074   1.408       .  A
C1070      C1071   1.404       .  A
C1070      H1075   1.083       .  S
C1071      C1072   1.408       .  A
C1071      O1076   1.372       .  S
C1072      C1073   1.403       .  A
C1073      C1074   1.394       .  A
C1073      H1077   1.084       .  S
C1074      O1078   1.373       .  S
O1076      H1080   0.992       .  S
O1078      H1079   0.992       .  S
C1081      C1082   1.407       .  A
C1081      C1086   1.409       .  A
C1082      C1083   1.397       .  A
C1082      H1087   1.083       .  S
C1083      C1084   1.407       .  A
C1083      O1088   1.371       .  S
C1084      C1085   1.408       .  A
C1085      C1086   1.400       .  A
C1085      H1089   1.084       .  S
C1086      O1090   1.372       .  S
O1088      H1092   0.992       .  S
O1090      H1091   0.992       .  S
C1093      C1094   1.406       .  A
C1093      C1098   1.411       .  A
C1094      C1095   1.394       .  A
C1094      H1099   1.083       .  S
C1095      C1096   1.409       .  A
C1095      O1100   1.373       .  S
C1096      C1097   1.411       .  A
C1097      C1098   1.411       .  A
C1097      H1101   1.083       .  S
C1098      O1102   1.371       .  S
O1100      H1104   0.991       .  S
O1102      H1103   0.992       .  S
C1105      C1106   1.408       .  A
C1105      C1110   1.409       .  A
C1106      C1107   1.398       .  A
C1106      H1111   1.083       .  S
C1107      C1108   1.406       .  A
C1107      O1112   1.372       .  S
C1108      C1109   1.407       .  A
C1109      C1110   1.404       .  A
C1109      H1113   1.083       .  S
C1110      O1114   1.371       .  S
O1112      H1116   0.992       .  S
O1114      H1115   0.992       .  S
C1117      C1118   1.404       .  A
C1117      C1122   1.409       .  A
C1118      C1119   1.390       .  A
C1118      H1123   1.082       .  S
C1119      C1120   1.408       .  A
C1119      O1124   1.372       .  S
C1120      C1121   1.411       .  A
C1121      C1122   1.407       .  A
C1121      H1125   1.083       .  S
C1122      O1126   1.371       .  S
O1124      H1128   0.991       .  S
O1126      H1127   0.992       .  S
C1129      C1130   1.401       .  A
C1129      C1134   1.408       .  A
C1130      C1131   1.396       .  A
C1130      H1135   1.084       .  S
C1131      C1132   1.414       .  A
C1131      O1136   1.372       .  S
C1132      C1133   1.409       .  A
C1133      C1134   1.404       .  A
C1133      H1137   1.083       .  S
C1134      O1138   1.372       .  S
O1136      H1140   0.992       .  S
O1138      H1139   0.991       .  S
C1141      C1142   1.401       .  A
C1141      C1146   1.416       .  A
C1142      C1143   1.398       .  A
C1142      H1147   1.084       .  S
C1143      C1144   1.416       .  A
C1143      O1148   1.372       .  S
C1144      C1145   1.405       .  A
C1145      C1146   1.407       .  A
C1145      H1149   1.083       .  S
C1146      O1150   1.372       .  S
O1148      H1152   0.991       .  S
O1150      H1151   0.992       .  S
C1153      C1154   1.404       .  A
C1153      C1158   1.412       .  A
C1154      C1155   1.397       .  A
C1154      H1159   1.084       .  S
C1155      C1156   1.412       .  A
C1155      O1160   1.372       .  S
C1156      C1157   1.405       .  A
C1157      C1158   1.405       .  A
C1157      H1161   1.083       .  S
C1158      O1162   1.371       .  S
O1160      H1164   0.992       .  S
O1162      H1163   0.992       .  S
C1165      C1166   1.408       .  A
C1165      C1170   1.406       .  A
C1166      C1167   1.401       .  A
C1166      H1171   1.083       .  S
C1167      C1168   1.403       .  A
C1167      O1172   1.371       .  S
C1168      C1169   1.406       .  A
C1169      C1170   1.402       .  A
C1169      H1173   1.081       .  S
C1170      O1174   1.371       .  S
O1172      H1176   0.991       .  S
O1174      H1175   0.992       .  S
C1177      C1178   1.406       .  A
C1177      C1182   1.407       .  A
C1178      C1179   1.404       .  A
C1178      H1183   1.084       .  S
C1179      C1180   1.411       .  A
C1179      O1184   1.371       .  S
C1180      C1181   1.408       .  A
C1181      C1182   1.397       .  A
C1181      H1185   1.084       .  S
C1182      O1186   1.372       .  S
O1184      H1188   0.992       .  S
O1186      H1187   0.992       .  S
C1189      C1190   1.403       .  A
C1189      C1194   1.412       .  A
C1190      C1191   1.403       .  A
C1190      H1195   1.083       .  S
C1191      C1192   1.414       .  A
C1191      O1196   1.372       .  S
C1192      C1193   1.402       .  A
C1193      C1194   1.394       .  A
C1193      H1197   1.084       .  S
C1194      O1198   1.372       .  S
O1196      H1200   0.992       .  S
O1198      H1199   0.992       .  S
C1201      C1202   1.410       .  A
C1201      C1206   1.410       .  A
C1202      C1203   1.400       .  A
C1202      H1207   1.083       .  S
C1203      C1204   1.408       .  A
C1203      O1208   1.372       .  S
C1204      C1205   1.408       .  A
C1205      C1206   1.404       .  A
C1205      H1209   1.084       .  S
C1206      O1210   1.371       .  S
O1208      H1212   0.992       .  S
O1210      H1211   0.992       .  S
C1213      C1214   1.407       .  A
C1213      C1218   1.411       .  A
C1214      C1215   1.412       .  A
C1214      H1219   1.083       .  S
C1215      C1216   1.414       .  A
C1215      O1220   1.371       .  S
C1216      C1217   1.399       .  A
C1217      C1218   1.387       .  A
C1217      H1221   1.084       .  S
C1218      O1222   1.373       .  S
O1220      H1224   0.992       .  S
O1222      H1223   0.992       .  S
C1225      C1226   1.407       .  A
C1225      C1230   1.404       .  A
C1226      C1227   1.401       .  A
C1226      H1231   1.084       .  S
C1227      C1228   1.406       .  A
C1227      O1232   1.371       .  S
C1228      C1229   1.407       .  A
C1229      C1230   1.402       .  A
C1229      H1233   1.084       .  S
C1230      O1234   1.371       .  S
O1232      H1236   0.992       .  S
O1234      H1235   0.992       .  S
C1237      C1238   1.407       .  A
C1237      C1242   1.421       .  A
C1238      C1239   1.414       .  A
C1238      H1243   1.083       .  S
C1239      C1240   1.415       .  A
C1239      O1244   1.371       .  S
C1240      C1241   1.395       .  A
C1241      C1242   1.392       .  A
C1241      H1245   1.084       .  S
C1242      O1246   1.373       .  S
O1244      H1248   0.992       .  S
O1246      H1247   0.992       .  S
C1249      C1250   1.405       .  A
C1249      C1254   1.409       .  A
C1250      C1251   1.405       .  A
C1250      H1255   1.084       .  S
C1251      C1252   1.410       .  A
C1251      O1256   1.372       .  S
C1252      C1253   1.403       .  A
C1253      C1254   1.399       .  A
C1253      H1257   1.084       .  S
C1254      O1258   1.372       .  S
O1256      H1260   0.992       .  S
O1258      H1259   0.992       .  S
C1261      C1262   1.413       .  A
C1261      C1266   1.407       .  A
C1262      C1263   1.401       .  A
C1262      H1267   1.083       .  S
C1263      C1264   1.405       .  A
C1263      O1268   1.371       .  S
C1264      C1265   1.413       .  A
C1265      C1266   1.400       .  A
C1265      H1269   1.083       .  S
C1266      O1270   1.371       .  S
O1268      H1272   0.992       .  S
O1270      H1271   0.992       .  S
C1273      C1274   1.402       .  A
C1273      C1278   1.412       .  A
C1274      C1275   1.403       .  A
C1274      H1279   1.084       .  S
C1275      C1276   1.411       .  A
C1275      O1280   1.372       .  S
C1276      C1277   1.399       .  A
C1277      C1278   1.403       .  A
C1277      H1281   1.083       .  S
C1278      O1282   1.372       .  S
O1280      H1284   0.992       .  S
O1282      H1283   0.992       .  S
C1285      C1286   1.402       .  A
C1285      C1290   1.415       .  A
C1286      C1287   1.406       .  A
C1286      H1291   1.083       .  S
C1287      C1288   1.411       .  A
C1287      O1292   1.371       .  S
C1288      C1289   1.394       .  A
C1289      C1290   1.393       .  A
C1289      H1293   1.084       .  S
C1290      O1294   1.372   1_554  S
O1292      H1296   0.992       .  S
O1294      H1295   0.992       .  S
C1297      C1298   1.407       .  A
C1297      C1302   1.412       .  A
C1298      C1299   1.404       .  A
C1298      H1303   1.083       .  S
C1299      C1300   1.411       .  A
C1299      O1304   1.371       .  S
C1300      C1301   1.405       .  A
C1301      C1302   1.398       .  A
C1301      H1305   1.084       .  S
C1302      O1306   1.372       .  S
O1304      H1308   0.992       .  S
O1306      H1307   0.992       .  S
C1309      C1310   1.410       .  A
C1309      C1314   1.404       .  A
C1310      C1311   1.410       .  A
C1310      H1315   1.084       .  S
C1311      C1312   1.409       .  A
C1311      O1316   1.371       .  S
C1312      C1313   1.409       .  A
C1313      C1314   1.397       .  A
C1313      H1317   1.084       .  S
C1314      O1318   1.373       .  S
O1316      H1320   0.992       .  S
O1318      H1319   0.992       .  S
C1321      C1322   1.404       .  A
C1321      C1326   1.409       .  A
C1322      C1323   1.395       .  A
C1322      H1327   1.084       .  S
C1323      C1324   1.412       .  A
C1323      O1328   1.372       .  S
C1324      C1325   1.407       .  A
C1325      C1326   1.401       .  A
C1325      H1329   1.083       .  S
C1326      O1330   1.371       .  S
O1328      H1332   0.992       .  S
O1330      H1331   0.992       .  S
C1333      C1334   1.408       .  A
C1333      C1338   1.411       .  A
C1334      C1335   1.403       .  A
C1334      H1339   1.083       .  S
C1335      C1336   1.411       .  A
C1335      O1340   1.371       .  S
C1336      C1337   1.409       .  A
C1337      C1338   1.403       .  A
C1337      H1341   1.084       .  S
C1338      O1342   1.372       .  S
O1340      H1344   0.992       .  S
O1342      H1343   0.992       .  S
C1345      C1346   1.406       .  A
C1345      C1350   1.409       .  A
C1346      C1347   1.414       .  A
C1346      H1351   1.083       .  S
C1347      C1348   1.415       .  A
C1347      O1352   1.371       .  S
C1348      C1349   1.402       .  A
C1349      C1350   1.394       .  A
C1349      H1353   1.083       .  S
C1350      O1354   1.372       .  S
O1352      H1356   0.992       .  S
O1354      H1355   0.991       .  S
C1357      C1358   1.411       .  A
C1357      C1362   1.410       .  A
C1358      C1359   1.398       .  A
C1358      H1363   1.083       .  S
C1359      C1360   1.407       .  A
C1359      O1364   1.372       .  S
C1360      C1361   1.411       .  A
C1361      C1362   1.408       .  A
C1361      H1365   1.083       .  S
C1362      O1366   1.371       .  S
O1364      H1368   0.992       .  S
O1366      H1367   0.992       .  S
C1369      C1370   1.406       .  A
C1369      C1374   1.408       .  A
C1370      C1371   1.407       .  A
C1370      H1375   1.082       .  S
C1371      C1372   1.413       .  A
C1371      O1376   1.371       .  S
C1372      C1373   1.407       .  A
C1373      C1374   1.396       .  A
C1373      H1377   1.082       .  S
C1374      O1378   1.371       .  S
O1376      H1380   0.992       .  S
O1378      H1379   0.992       .  S
C1381      C1382   1.397       .  A
C1381      C1386   1.406       .  A
C1382      C1383   1.398       .  A
C1382      H1387   1.084       .  S
C1383      C1384   1.415       .  A
C1383      O1388   1.372       .  S
C1384      C1385   1.404       .  A
C1385      C1386   1.400       .  A
C1385      H1389   1.083       .  S
C1386      O1390   1.370       .  S
O1388      H1392   0.992       .  S
O1390      H1391   0.992       .  S
