geometry optimzed in LAMMPS
_audit_creation_date              2020-11-30 
_audit_creation_method            'lammps2cif' 
_symmetry_space_group_name_H-M    'P1' 
_symmetry_Int_Tables_number       1 
_symmetry_cell_setting            triclinic 
loop_ 
_symmetry_equiv_pos_as_xyz 
  x,y,z 
_cell_length_a                    30.81265649 
_cell_length_b                    30.923498346990737 
_cell_length_c                    44.34809209964887 
_cell_angle_alpha                 89.97909552006571 
_cell_angle_beta                  89.66090314689404 
_cell_angle_gamma                 120.00769559363157 
loop_ 
_atom_site_label 
_atom_site_type_symbol 
_atom_site_fract_x 
_atom_site_fract_y 
_atom_site_fract_z 
_atom_site_charge 
O1          O  0.19342841  0.84123686  0.03854065    -0.85300
O2          O  0.11377953  0.75930178  0.05995936    -0.82400
C3          C  0.08737931  0.71643717  0.07075258     0.98100
O4          O  0.10100901  0.70463115  0.09490976    -0.82400
O5          O  0.17497869  0.69200214  0.06956324    -0.85100
C6          C  0.21661026  0.69977645  0.05973712     1.02700
O7          O  0.25565322  0.74239400  0.06282236    -0.77800
O8          O  0.24141849  0.80875778  0.03004408    -0.78000
C9          C  0.21559929  0.82681927  0.02022783     1.02600
O10         O  0.21779290  0.87640099  0.10117582    -0.85300
O11         O  0.13517201  0.79802802  0.12292351    -0.82400
C12         C  0.15127629  0.78589382  0.14604079     0.98200
O13         O  0.17131089  0.75918820  0.14339815    -0.82400
O14         O  0.23983393  0.73322504  0.12043219    -0.85000
C15         C  0.28213734  0.77283197  0.12288908     1.02600
O16         O  0.28673378  0.81264082  0.11265018    -0.77800
O17         O  0.28354861  0.88280469  0.07797020    -0.78000
C18         C  0.26352725  0.90116233  0.09480998     1.02600
Cr19       Cr  0.16721970  0.81627967  0.08103199     1.93700
Cr20       Cr  0.17340626  0.72665499  0.10592149     1.93200
Cr21       Cr  0.26248894  0.81003445  0.07179669     1.39100
O22         O  0.20092188  0.78450013  0.08600039    -1.23100
O23         O  0.20109076  0.86040454  0.28900457    -0.85300
O24         O  0.12506152  0.77756864  0.31237729    -0.82400
C25         C  0.10056805  0.73273385  0.32034646     0.98100
O26         O  0.11996495  0.71502751  0.33833673    -0.82400
O27         O  0.18719771  0.70516693  0.30342159    -0.85100
C28         C  0.22673590  0.71217233  0.29083279     1.02700
O29         O  0.26521277  0.75564569  0.29082554    -0.77800
O30         O  0.23478199  0.82003637  0.26769050    -0.78000
C31         C  0.20845014  0.84057070  0.26580133     1.02600
O32         O  0.24327179  0.88432272  0.35084324    -0.85300
O33         O  0.16189621  0.80592226  0.37417975    -0.82400
C34         C  0.18379474  0.79177203  0.39257414     0.98200
O35         O  0.20170889  0.76545275  0.38333272    -0.82400
O36         O  0.26421286  0.74619147  0.34942921    -0.85000
C37         C  0.30762003  0.78523271  0.34886905     1.02600
O38         O  0.31282800  0.82532534  0.33842051    -0.77800
O39         O  0.29444506  0.89539474  0.31361557    -0.78000
C40         C  0.28484342  0.91035697  0.33820795     1.02600
Cr41       Cr  0.18516122  0.82983550  0.33122269     1.93700
Cr42       Cr  0.19438379  0.73705218  0.34276484     1.93200
Cr43       Cr  0.27272408  0.82265055  0.30379393     1.39100
O44         O  0.21723538  0.79633311  0.32595221    -1.23100
O45         O  0.63918072  0.80456031  0.12497156    -0.85300
O46         O  0.63670428  0.88377080  0.14758570    -0.82400
C47         C  0.62186879  0.91022906  0.16032496     0.98100
O48         O  0.59457920  0.89387694  0.18397123    -0.82400
O49         O  0.50626160  0.82231972  0.15773747    -0.85100
C50         C  0.47177551  0.78162273  0.14756328     1.02700
O51         O  0.47638059  0.74280433  0.14816950    -0.77800
O52         O  0.55890217  0.76007639  0.11543704    -0.78000
C53         C  0.60312552  0.78855922  0.10652614     1.02600
O54         O  0.64691224  0.77582312  0.18674473    -0.85300
O55         O  0.65192054  0.85834264  0.20941962    -0.82400
C56         C  0.62377860  0.83942459  0.23245018     0.98200
O57         O  0.57681784  0.81844147  0.23014282    -0.82400
O58         O  0.48161302  0.75321233  0.20607971    -0.85000
C59         C  0.47733166  0.71012082  0.20599959     1.02600
O60         O  0.51366733  0.70643060  0.19653903    -0.77800
O61         O  0.58920486  0.71214897  0.16191697    -0.78000
C62         C  0.62680588  0.73068549  0.17940381     1.02600
Cr63       Cr  0.63894401  0.82825191  0.16748377     1.93700
Cr64       Cr  0.54265061  0.82052521  0.19334180     1.93200
Cr65       Cr  0.53730384  0.73437749  0.15638424     1.39100
O66         O  0.57309745  0.79453144  0.17204938    -1.23100
O67         O  0.64794157  0.84711778  0.46012686    -0.85300
O68         O  0.64586170  0.76560229  0.43841815    -0.82400
C69         C  0.63054081  0.72385031  0.42653648     0.98100
O70         O  0.60237998  0.71141545  0.40365813    -0.82400
O71         O  0.51582271  0.69683552  0.43138868    -0.85100
C72         C  0.48050451  0.70268109  0.44086824     1.02700
O73         O  0.48419572  0.74552961  0.43930876    -0.77800
O74         O  0.56757971  0.81289829  0.47000488    -0.78000
C75         C  0.61200377  0.83125357  0.47899497     1.02600
O76         O  0.65342248  0.88073069  0.39741718    -0.85300
O77         O  0.65928217  0.80363648  0.37574712    -0.82400
C78         C  0.63018289  0.79143192  0.35315889     0.98200
O79         O  0.58344933  0.76474914  0.35648085    -0.82400
O80         O  0.49014065  0.73719850  0.38103610    -0.85000
C81         C  0.48542220  0.77548521  0.37842672     1.02600
O82         O  0.51800818  0.81598255  0.38963166    -0.77800
O83         O  0.59508305  0.88727926  0.42161986    -0.78000
C84         C  0.63187884  0.90505417  0.40330963     1.02600
Cr85       Cr  0.64676319  0.82190833  0.41769894     1.93700
Cr86       Cr  0.55055312  0.73182066  0.39440052     1.93200
Cr87       Cr  0.54436682  0.81393755  0.42927735     1.39100
O88         O  0.58077269  0.78949210  0.41389659    -1.23100
O89         O  0.15460978  0.35066085  0.45697667    -0.85300
O90         O  0.24007037  0.36032356  0.47753745    -0.82400
C91         C  0.28290997  0.37832041  0.48842622     0.98100
O92         O  0.29501611  0.41186424  0.00907956    -0.82400
O93         O  0.30510148  0.48984064  0.47750806    -0.85100
C94         C  0.29540222  0.52140113  0.46614069     1.02700
O95         O  0.25174005  0.51616008  0.46891960    -0.77800
O96         O  0.18157566  0.42830752  0.44307267    -0.78000
C97         C  0.16511786  0.38322553  0.43650500     1.02600
O98         O  0.12223322  0.34845507  0.01768684    -0.85300
O99         O  0.20419535  0.35490432  0.04022613    -0.82400
C100        C  0.21237838  0.38702886  0.06074772     0.98200
O101        O  0.23904738  0.43287114  0.05497491    -0.82400
O102        O  0.26127285  0.51987883  0.02618693    -0.85000
C103        C  0.22106949  0.52108213  0.02938115     1.02600
O104        O  0.18068063  0.48458128  0.02077002    -0.77800
O105        O  0.11287744  0.40494925  0.49452810    -0.78000
C106        C  0.09489084  0.36648870  0.01188699     1.02600
Cr107      Cr  0.18260600  0.35875021  0.99729090     1.93700
Cr108      Cr  0.27001078  0.46082385  0.01573766     1.93200
Cr109      Cr  0.18500937  0.45672524  0.48293047     1.39100
O110        O  0.21104387  0.42462101  0.99790637    -1.23100
O111        O  0.15026362  0.34690290  0.20705946    -0.85300
O112        O  0.23463091  0.35701049  0.22935841    -0.82400
C113        C  0.27736403  0.37534330  0.24049832     0.98100
O114        O  0.29118429  0.40854553  0.26078083    -0.82400
O115        O  0.30050789  0.48899228  0.22854820    -0.85100
C116        C  0.29182249  0.52129555  0.21734463     1.02700
O117        O  0.24749029  0.51466830  0.21824992    -0.77800
O118        O  0.18050330  0.42445559  0.19200655    -0.78000
C119        C  0.16410766  0.37904082  0.18600634     1.02600
O120        O  0.11909010  0.35043102  0.26980654    -0.85300
O121        O  0.20043105  0.35273233  0.29181785    -0.82400
C122        C  0.21033179  0.38523334  0.31216495     0.98200
O123        O  0.23604829  0.43109399  0.30603227    -0.82400
O124        O  0.25918999  0.51906957  0.27653607    -0.85000
C125        C  0.22007096  0.52299214  0.27721845     1.02600
O126        O  0.17927496  0.48670235  0.26882888    -0.77800
O127        O  0.10797772  0.40228290  0.24201890    -0.78000
C128        C  0.09337208  0.37015305  0.26323535     1.02600
Cr129      Cr  0.17822943  0.35674945  0.24937775     1.93700
Cr130      Cr  0.26738775  0.45874325  0.26696519     1.93200
Cr131      Cr  0.18047225  0.45411781  0.23119237     1.39100
O132        O  0.20859669  0.42303222  0.24893882    -1.23100
O133        O  0.34340088  0.20016452  0.12000660    -0.85300
O134        O  0.34991671  0.12306507  0.14121082    -0.82400
C135        C  0.36600863  0.09599114  0.15132464     0.98100
O136        O  0.40181566  0.11419978  0.16998936    -0.82400
O137        O  0.48161342  0.18728785  0.13672737    -0.85100
C138        C  0.51457506  0.22869797  0.12616080     1.02700
O139        O  0.51036464  0.26726356  0.12980515    -0.77800
O140        O  0.42129949  0.24919709  0.10514990    -0.78000
C141        C  0.37565572  0.22105167  0.09902290     1.02600
O142        O  0.34885459  0.23250111  0.18328921    -0.85300
O143        O  0.34910901  0.15255340  0.20427628    -0.82400
C144        C  0.38319229  0.16840562  0.22421555     0.98200
O145        O  0.42870447  0.18855347  0.21674329    -0.82400
O146        O  0.51600916  0.25466797  0.18692916    -0.85000
C147        C  0.51964019  0.29704167  0.19082650     1.02600
O148        O  0.48384210  0.30291210  0.18301443    -0.77800
O149        O  0.40170883  0.29651309  0.15647019    -0.78000
C150        C  0.36827563  0.27786447  0.17687052     1.02600
Cr151      Cr  0.35285959  0.17974602  0.16200769     1.93700
Cr152      Cr  0.45399525  0.18780036  0.17648457     1.93200
Cr153      Cr  0.45144935  0.27429485  0.14460554     1.39100
O154        O  0.41906414  0.21377608  0.16083455    -1.23100
O155        O  0.34603286  0.15190093  0.45348746    -0.85300
O156        O  0.34756169  0.23158894  0.43044255    -0.82400
C157        C  0.36735308  0.27648224  0.42266789     0.98100
O158        O  0.40035292  0.29311560  0.40173117    -0.82400
O159        O  0.48221742  0.30596692  0.43238377    -0.85100
C160        C  0.51563514  0.29922013  0.44361333     1.02700
O161        O  0.51184747  0.25635048  0.44214337    -0.77800
O162        O  0.42361051  0.19118443  0.46939993    -0.78000
C163        C  0.37772960  0.17434453  0.47436644     1.02600
O164        O  0.35391370  0.12265354  0.39012135    -0.85300
O165        O  0.34890939  0.20059157  0.36842296    -0.82400
C166        C  0.38301737  0.21364966  0.34853668     0.98200
O167        O  0.42817668  0.24242432  0.35507186    -0.82400
O168        O  0.51584104  0.26693338  0.38467836    -0.85000
C169        C  0.52042208  0.22819257  0.38452634     1.02600
O170        O  0.48371200  0.18718277  0.39254255    -0.77800
O171        O  0.40193112  0.11501186  0.42295159    -0.78000
C172        C  0.37303756  0.09827618  0.40033608     1.02600
Cr173      Cr  0.35343110  0.17879878  0.41069125     1.93700
Cr174      Cr  0.45355258  0.27287669  0.39424860     1.93200
Cr175      Cr  0.45263010  0.18853625  0.43070693     1.39100
O176        O  0.41965420  0.21365878  0.41211394    -1.23100
O177        O  0.80878907  0.15354058  0.04816925    -0.85300
O178        O  0.88357989  0.23772790  0.07038438    -0.82400
C179        C  0.90741900  0.28263302  0.07817978     0.98100
O180        O  0.88741354  0.29992704  0.09594416    -0.82400
O181        O  0.82014971  0.30458844  0.05901130    -0.85100
C182        C  0.78037724  0.29879860  0.04780174     1.02700
O183        O  0.74160627  0.25548347  0.04862825    -0.77800
O184        O  0.76908650  0.18820952  0.02709501    -0.78000
C185        C  0.79653987  0.16892123  0.02489931     1.02600
O186        O  0.76627139  0.12858107  0.11010292    -0.85300
O187        O  0.84532110  0.21043972  0.13197217    -0.82400
C188        C  0.82209174  0.22407998  0.14979276     0.98200
O189        O  0.80548125  0.25141812  0.14056182    -0.82400
O190        O  0.74404895  0.27033302  0.10569077    -0.85000
C191        C  0.70096307  0.23134028  0.10650681     1.02600
O192        O  0.69659121  0.19003738  0.09926323    -0.77800
O193        O  0.71161026  0.11657867  0.07534874    -0.78000
C194        C  0.72364871  0.10181355  0.09904677     1.02600
Cr195      Cr  0.82353247  0.18470712  0.08977523     1.93700
Cr196      Cr  0.81315286  0.27740304  0.09954203     1.93200
Cr197      Cr  0.73385364  0.18910445  0.06373563     1.39100
O198        O  0.79029188  0.21692127  0.08439705    -1.23100
O199        O  0.80344045  0.16392607  0.29453547    -0.85300
O200        O  0.88223752  0.24314593  0.31872884    -0.82400
C201        C  0.90823578  0.28396106  0.33171296     0.98100
O202        O  0.89115156  0.29463487  0.35500163    -0.82400
O203        O  0.82085648  0.31409768  0.32912722    -0.85100
C204        C  0.78008225  0.30775384  0.31859219     1.02700
O205        O  0.74150713  0.26424160  0.31819257    -0.77800
O206        O  0.75916429  0.20014232  0.28508845    -0.78000
C207        C  0.78497302  0.18147981  0.27602252     1.02600
O208        O  0.77128033  0.12457234  0.35524173    -0.85300
O209        O  0.85289607  0.19936219  0.37974904    -0.82400
C210        C  0.83193525  0.20669213  0.40236984     0.98200
O211        O  0.81275484  0.23412191  0.40003257    -0.82400
O212        O  0.75126592  0.26687367  0.37656720    -0.85000
C213        C  0.70769069  0.22887112  0.37696018     1.02600
O214        O  0.70069961  0.18900983  0.36521390    -0.77800
O215        O  0.70910762  0.12094957  0.32971760    -0.78000
C216        C  0.72702193  0.10024185  0.34626451     1.02600
Cr217      Cr  0.82506730  0.18534261  0.33739173     1.93700
Cr218      Cr  0.81773720  0.27318382  0.36388751     1.93200
Cr219      Cr  0.73201379  0.19498725  0.32560432     1.39100
O220        O  0.79175553  0.21794749  0.34187364    -1.23100
O221        O  0.84862203  0.64616275  0.45637507    -0.85300
O222        O  0.77239488  0.65087413  0.48055178    -0.82400
C223        C  0.72748581  0.63181822  0.48866029     0.98100
O224        O  0.70747699  0.59858477  0.01057521    -0.82400
O225        O  0.69643801  0.51450792  0.48167325    -0.85100
C226        C  0.70072575  0.47870493  0.47199104     1.02700
O227        O  0.74302373  0.48141620  0.47303859    -0.77800
O228        O  0.80364483  0.56815295  0.44240654    -0.78000
C229        C  0.82228845  0.61384718  0.43660299     1.02600
O230        O  0.87916877  0.64431405  0.01905838    -0.85300
O231        O  0.80502905  0.65375954  0.04306559    -0.82400
C232        C  0.78702688  0.62098183  0.06381694     0.98200
O233        O  0.75962318  0.57544955  0.05750811    -0.82400
O234        O  0.73741738  0.48688658  0.02967914    -0.85000
C235        C  0.77629900  0.48218056  0.02991858     1.02600
O236        O  0.81635699  0.51522793  0.01789934    -0.77800
O237        O  0.88467846  0.59290644  0.48519311    -0.78000
C238        C  0.90194837  0.62419611  0.00777858     1.02600
Cr239      Cr  0.82508022  0.64375089  0.49955424     1.93700
Cr240      Cr  0.72934388  0.54710888  0.01867458     1.93200
Cr241      Cr  0.81103814  0.54214426  0.48094985     1.39100
O242        O  0.78876109  0.57775239  0.50005470    -1.23100
O243        O  0.85108693  0.64832252  0.20838897    -0.85300
O244        O  0.77198070  0.65240257  0.22959287    -0.82400
C245        C  0.72729430  0.63528073  0.23763164     0.98100
O246        O  0.70773700  0.60006284  0.25691451    -0.82400
O247        O  0.69693918  0.51527047  0.23074202    -0.85100
C248        C  0.70269740  0.47994651  0.22195603     1.02700
O249        O  0.74505164  0.48287127  0.22554660    -0.77800
O250        O  0.81143843  0.56936169  0.19535572    -0.78000
C251        C  0.82922216  0.61473923  0.18848758     1.02600
O252        O  0.87915905  0.64597382  0.27186167    -0.85300
O253        O  0.80341411  0.65626692  0.29247408    -0.82400
C254        C  0.78218692  0.62438363  0.31347842     0.98200
O255        O  0.75449297  0.57884384  0.30747664    -0.82400
O256        O  0.73433556  0.48933642  0.28322917    -0.85000
C257        C  0.77283815  0.48478852  0.28707090     1.02600
O258        O  0.81420300  0.51565771  0.27525246    -0.77800
O259        O  0.88775559  0.59456411  0.24234068    -0.78000
C260        C  0.90568513  0.62881739  0.26209051     1.02600
Cr261      Cr  0.82383913  0.64570010  0.25064110     1.93700
Cr262      Cr  0.72801995  0.54859405  0.26845001     1.93200
Cr263      Cr  0.81328084  0.54376238  0.23561384     1.39100
O264        O  0.78835830  0.57962379  0.25166823    -1.23100
C265        C  0.84682175  0.66572036  0.38899333    -0.12200
C266        C  0.81004890  0.62747582  0.40702657     0.04800
C267        C  0.76098650  0.59875992  0.39540884    -0.07500
C268        C  0.75124523  0.60494664  0.36559937    -0.08300
C269        C  0.78967257  0.63748269  0.34606566    -0.02800
C270        C  0.83695642  0.67093270  0.35853583     0.04000
N271        N  0.87640671  0.70745309  0.34016739     0.66500
H272        H  0.88419828  0.68919727  0.39782767     0.15400
H273        H  0.71412986  0.57992716  0.35681699     0.15100
N274        N  0.72130750  0.55967560  0.41257782     0.74200
O275        O  0.87985586  0.74953820  0.33654710    -0.39300
O276        O  0.91355393  0.70230639  0.33402034    -0.39200
O277        O  0.68802347  0.56708210  0.42402297    -0.39900
O278        O  0.71131591  0.51532339  0.40820398    -0.40000
C279        C  0.75949681  0.60143815  0.11629850    -0.12200
C280        C  0.79710813  0.63334420  0.09633160     0.04800
C281        C  0.84510138  0.66677532  0.10800860    -0.07500
C282        C  0.85588559  0.66279938  0.13863005    -0.08300
C283        C  0.81878047  0.62633049  0.15763958    -0.02800
C284        C  0.76978195  0.59742809  0.14625889     0.04000
N285        N  0.72964629  0.56199029  0.16464268     0.66500
H286        H  0.72195570  0.57659421  0.10808504     0.15400
H287        H  0.89340795  0.68655504  0.14708487     0.15100
N288        N  0.88330371  0.70339627  0.08891007     0.74200
O289        O  0.70435511  0.57641842  0.17960010    -0.39300
O290        O  0.71085079  0.51616430  0.15879327    -0.39200
O291        O  0.88057022  0.74087361  0.08033300    -0.39900
O292        O  0.91922474  0.69794221  0.08004833    -0.40000
C293        C  0.80785460  0.39782403  0.32547906    -0.12200
C294        C  0.77582947  0.35235443  0.31098321     0.04800
C295        C  0.73794451  0.34991281  0.29205755    -0.07500
C296        C  0.73455926  0.39289759  0.28684860    -0.08300
C297        C  0.76827379  0.43870807  0.30012027    -0.02800
C298        C  0.80402839  0.44052565  0.32044028     0.04000
N299        N  0.83491128  0.48480373  0.33725116     0.66500
H300        H  0.83555335  0.40013662  0.34139117     0.15400
H301        H  0.70694436  0.39103663  0.27102802     0.15100
N302        N  0.70457769  0.30499770  0.27655099     0.74200
O303        O  0.88065912  0.51142405  0.33049814    -0.39300
O304        O  0.81943942  0.49094736  0.36240711    -0.39200
O305        O  0.66280472  0.27473315  0.28832225    -0.39900
O306        O  0.71269204  0.30020170  0.24917423    -0.40000
C307        C  0.81947528  0.39095843  0.04868302    -0.12200
C308        C  0.77778394  0.34470823  0.04087950     0.04800
C309        C  0.73318609  0.34380827  0.03232858    -0.07500
C310        C  0.73150406  0.38860445  0.03158813    -0.08300
C311        C  0.77389547  0.43473933  0.03889487    -0.02800
C312        C  0.81773715  0.43512716  0.04815448     0.04000
N313        N  0.86095244  0.48026430  0.05761968     0.66500
H314        H  0.85377428  0.39311345  0.05642599     0.15400
H315        H  0.69783609  0.38762957  0.02363628     0.15100
N316        N  0.68975461  0.29810581  0.02383334     0.74200
O317        O  0.86356638  0.49443176  0.08456198    -0.39300
O318        O  0.90004742  0.49937684  0.04144152    -0.39200
O319        O  0.65184034  0.27826278  0.04098241    -0.39900
O320        O  0.69180589  0.27585625  0.50194920    -0.40000
C321        C  0.77506192  0.13567852  0.47415223    -0.12200
C322        C  0.81262634  0.16481206  0.49465478     0.04800
C323        C  0.86062262  0.19987047  0.48343032    -0.07500
C324        C  0.86846315  0.20901402  0.45229679    -0.08300
C325        C  0.82902505  0.18392817  0.43211437    -0.02800
C326        C  0.78270657  0.14502113  0.44315220     0.04000
N327        N  0.74163134  0.11675178  0.42353122     0.66500
H328        H  0.73787865  0.10883139  0.48237801     0.15400
H329        H  0.90403283  0.23943979  0.44424562     0.15100
N330        N  0.89945831  0.23219433  0.50328337     0.74200
O331        O  0.72579513  0.07062466  0.42102509    -0.39300
O332        O  0.71278440  0.13325900  0.41703405    -0.39200
O333        O  0.93110663  0.21637665  0.01106771    -0.39900
O334        O  0.90747470  0.27606114  0.50663334    -0.40000
C335        C  0.84855137  0.20567559  0.19923104    -0.12200
C336        C  0.81157974  0.20650563  0.18134682     0.04800
C337        C  0.76389037  0.19122782  0.19410471    -0.07500
C338        C  0.75503939  0.17839753  0.22448509    -0.08300
C339        C  0.79304410  0.18158835  0.24313223    -0.02800
C340        C  0.83988159  0.19389451  0.23013222     0.04000
N341        N  0.88027275  0.19900080  0.24830717     0.66500
H342        H  0.88514216  0.21688575  0.18960861     0.15400
H343        H  0.71868002  0.16857444  0.23397753     0.15100
N344        N  0.72428029  0.19009668  0.17680234     0.74200
O345        O  0.88657061  0.16201261  0.25174238    -0.39300
O346        O  0.91538314  0.24209331  0.25483054    -0.39200
O347        O  0.68891306  0.14866116  0.16796924    -0.39900
O348        O  0.71797943  0.22739491  0.17740805    -0.40000
C349        C  0.57394283  0.19111186  0.39448935    -0.12200
C350        C  0.57013606  0.23114814  0.38221598     0.04800
C351        C  0.61451067  0.27387446  0.37220360    -0.07500
C352        C  0.66052790  0.27458475  0.37343038    -0.08300
C353        C  0.66328104  0.23331175  0.38449555    -0.02800
C354        C  0.61955293  0.19201861  0.39589535     0.04000
N355        N  0.62083469  0.15059563  0.40921739     0.66500
H356        H  0.54121416  0.15855245  0.40368990     0.15400
H357        H  0.69367470  0.30631081  0.36387068     0.15100
N358        N  0.61326502  0.31552298  0.35923051     0.74200
O359        O  0.62723308  0.15041094  0.43728645    -0.39300
O360        O  0.60396336  0.11030782  0.39473387    -0.39200
O361        O  0.62909407  0.35524859  0.37418292    -0.39900
O362        O  0.60656605  0.31621505  0.33123285    -0.40000
C363        C  0.60813824  0.34431584  0.44957377    -0.12200
C364        C  0.56236528  0.34326239  0.45396753     0.04800
C365        C  0.56325528  0.38723761  0.46362058    -0.07500
C366        C  0.60879764  0.43061173  0.46810526    -0.08300
C367        C  0.65462894  0.43226322  0.46331287    -0.02800
C368        C  0.65409580  0.38837733  0.45381432     0.04000
N369        N  0.69944179  0.38823860  0.44712003     0.66500
H370        H  0.60839450  0.31142576  0.44129169     0.15400
H371        H  0.60779075  0.46339898  0.47580098     0.15100
N372        N  0.51853481  0.38895380  0.46963236     0.74200
O373        O  0.71400267  0.36592453  0.46457067    -0.39300
O374        O  0.71827696  0.40032328  0.42101284    -0.39200
O375        O  0.50946451  0.39603843  0.49641060    -0.39900
O376        O  0.49846786  0.39959279  0.44836023    -0.40000
C377        C  0.60776513  0.27704018  0.12109096    -0.12200
C378        C  0.56215013  0.23313129  0.11528625     0.04800
C379        C  0.56341346  0.19066558  0.10517574    -0.07500
C380        C  0.60866897  0.19089893  0.10395494    -0.08300
C381        C  0.65435929  0.23377610  0.11109689    -0.02800
C382        C  0.65377665  0.27799230  0.11858734     0.04000
N383        N  0.69911608  0.32404342  0.12357151     0.66500
H384        H  0.60770076  0.31027248  0.12885468     0.15400
H385        H  0.60771751  0.15701294  0.09655479     0.15100
N386        N  0.51892201  0.14687637  0.09570989     0.74200
O387        O  0.71713336  0.35589760  0.10258303    -0.39300
O388        O  0.71452523  0.33719132  0.15012148    -0.39200
O389        O  0.50737834  0.14170423  0.06817177    -0.39900
O390        O  0.49882511  0.10929651  0.11289469    -0.40000
C391        C  0.56953553  0.38855318  0.19751919    -0.12200
C392        C  0.56728629  0.34223275  0.20001973     0.04800
C393        C  0.61162242  0.34184817  0.20759155    -0.07500
C394        C  0.65652965  0.38730893  0.21234077    -0.08300
C395        C  0.65788256  0.43351652  0.21094158    -0.02800
C396        C  0.61339580  0.43342292  0.20288012     0.04000
N397        N  0.61126925  0.47839926  0.20008339     0.66500
H398        H  0.53662944  0.39053246  0.19115601     0.15400
H399        H  0.68990702  0.38616677  0.21863396     0.15100
N400        N  0.61111964  0.29585964  0.21220379     0.74200
O401        O  0.60645598  0.49230017  0.17416553    -0.39300
O402        O  0.59814989  0.49386943  0.22275422    -0.39200
O403        O  0.63779061  0.28492332  0.19578847    -0.39900
O404        O  0.59031996  0.27014538  0.23550045    -0.40000
C405        C  0.33696713  0.17949032  0.26778431    -0.12200
C406        C  0.37164662  0.16586925  0.25691625     0.04800
C407        C  0.40343616  0.16090500  0.27768545    -0.07500
C408        C  0.40392992  0.17429403  0.30764893    -0.08300
C409        C  0.37276057  0.19205632  0.31800936    -0.02800
C410        C  0.33725106  0.19239123  0.29837870     0.04000
N411        N  0.30489193  0.21012085  0.30853781     0.66500
H412        H  0.31264249  0.18406215  0.25216873     0.15400
H413        H  0.43059632  0.17266376  0.32280404     0.15100
N414        N  0.43804532  0.14544239  0.26827121     0.74200
O415        O  0.32272192  0.25617426  0.31325071    -0.39300
O416        O  0.26205256  0.17939810  0.31883845    -0.39200
O417        O  0.48411911  0.17726388  0.26623716    -0.39900
O418        O  0.42431247  0.09958606  0.26815896    -0.40000
C419        C  0.39472777  0.25093871  0.04661879    -0.12200
C420        C  0.36257000  0.21285743  0.06633425     0.04800
C421        C  0.32849621  0.16573351  0.05383500    -0.07500
C422        C  0.33154096  0.15634759  0.02289017    -0.08300
C423        C  0.36882888  0.19297916  0.00437247    -0.02800
C424        C  0.39918698  0.24129292  0.01643345     0.04000
N425        N  0.43787518  0.28052010  0.99900332     0.66500
H426        H  0.42047580  0.28782861  0.05532939     0.15400
H427        H  0.30762776  0.11912957  0.01406264     0.15100
N428        N  0.29531544  0.12511921  0.07264616     0.74200
O429        O  0.42818772  0.31033834  0.98530545    -0.39300
O430        O  0.47493808  0.28652195  0.50428755    -0.39200
O431        O  0.25085236  0.11599323  0.07616509    -0.39900
O432        O  0.30550887  0.09112902  0.07780618    -0.40000
C433        C  0.96480271  0.34550553  0.29319409    -0.12200
C434        C  0.95920119  0.31686614  0.31916586     0.04800
C435        C  0.99868493  0.30881386  0.32711213    -0.07500
C436        C  0.04179212  0.32796492  0.30899813    -0.08300
C437        C  0.04692365  0.35455921  0.28202052    -0.02800
C438        C  0.00810587  0.36448155  0.27470296     0.04000
N439        N  0.01022000  0.39063034  0.24770789     0.66500
H440        H  0.93389581  0.35042431  0.28611248     0.15400
H441        H  0.07092350  0.32015852  0.31584685     0.15100
N442        N  0.99385405  0.27750668  0.35212649     0.74200
O443        O  0.99099567  0.36621435  0.22394330    -0.39300
O444        O  0.02024263  0.43542768  0.24932265    -0.39200
O445        O  0.98029298  0.23222240  0.34755342    -0.42300
O446        O  0.01373104  0.29718475  0.37693389    -0.40000
C447        C  0.35079658  0.38249126  0.21164296    -0.12200
C448        C  0.30843286  0.35429748  0.22988442     0.04800
C449        C  0.28787979  0.30224396  0.23115828    -0.07500
C450        C  0.30827326  0.27939946  0.21369030    -0.08300
C451        C  0.34962817  0.30684758  0.19431995    -0.02800
C452        C  0.37176227  0.35956274  0.19391195     0.04000
N453        N  0.41439344  0.39002287  0.17536581     0.66500
H454        H  0.36632498  0.42315142  0.20980700     0.15400
H455        H  0.29028608  0.23892405  0.21512175     0.15100
N456        N  0.24417242  0.27163321  0.24896407     0.74200
O457        O  0.40796880  0.40314220  0.14959843    -0.39300
O458        O  0.45717475  0.41324016  0.18724081    -0.39200
O459        O  0.20273082  0.24457140  0.23618118    -0.39900
O460        O  0.24866289  0.26517713  0.27659913    -0.40000
C461        C  0.18104062  0.34011931  0.39372484    -0.12200
C462        C  0.16192097  0.37045817  0.40405440     0.04800
C463        C  0.15084257  0.39735747  0.38269562    -0.07500
C464        C  0.16352754  0.39761251  0.35248901    -0.08300
C465        C  0.18768146  0.37195487  0.34263913    -0.02800
C466        C  0.19406746  0.34070650  0.36310219     0.04000
N467        N  0.21779359  0.31326213  0.35390328     0.66500
H468        H  0.19015064  0.31947789  0.40981735     0.15400
H469        H  0.15700530  0.42066143  0.33675306     0.15100
N470        N  0.13002709  0.42767013  0.39158765     0.74200
O471        O  0.26477694  0.33323698  0.35576762    -0.39300
O472        O  0.19160858  0.26665423  0.35033552    -0.39200
O473        O  0.15816946  0.47444093  0.39289866    -0.39900
O474        O  0.08319410  0.40962276  0.39053404    -0.40000
C475        C  0.19621685  0.34134989  0.11070455    -0.12200
C476        C  0.18895340  0.37317345  0.09137381     0.04800
C477        C  0.16373605  0.39738875  0.10297675    -0.07500
C478        C  0.15004115  0.39270288  0.13332500    -0.08300
C479        C  0.16218378  0.36577341  0.15349613    -0.02800
C480        C  0.18325672  0.33763506  0.14170289     0.04000
N481        N  0.19557239  0.30857751  0.16111342     0.66500
H482        H  0.21512676  0.32212951  0.10229219     0.15400
H483        H  0.13352930  0.41424826  0.14174136     0.15100
N484        N  0.15554164  0.43092391  0.08504872     0.74200
O485        O  0.16331858  0.26344410  0.16596712    -0.39300
O486        O  0.24095100  0.32369479  0.16696582    -0.39200
O487        O  0.11193891  0.41632964  0.07550603    -0.39900
O488        O  0.18468013  0.47713645  0.08851252    -0.40000
C489        C  0.01959192  0.37200972  0.02987437    -0.12200
C490        C  0.04664651  0.34635369  0.02926859     0.04800
C491        C  0.03008880  0.30404023  0.04847747    -0.07500
C492        C  0.98788826  0.28834750  0.06680867    -0.08300
C493        C  0.95953425  0.31222892  0.06640333    -0.02800
C494        C  0.97635796  0.35536132  0.04819738     0.04000
N495        N  0.94803156  0.38029707  0.04618759     0.66500
H496        H  0.03185406  0.40503356  0.01598926     0.15400
H497        H  0.97509232  0.25462809  0.08016549     0.15100
N498        N  0.05421271  0.27475645  0.04894087     0.74200
O499        O  0.95969929  0.41775540  0.06265300    -0.39300
O500        O  0.92060203  0.37290362  0.02353932    -0.39200
O501        O  0.08086868  0.27778159  0.07121990    -0.39900
O502        O  0.04018419  0.23873683  0.03087634    -0.40000
C503        C  0.34345892  0.38139288  0.44971978    -0.12200
C504        C  0.31511451  0.35966713  0.47605092     0.04800
C505        C  0.30623870  0.31235482  0.48487237    -0.07500
C506        C  0.32325153  0.28681847  0.46685265    -0.08300
C507        C  0.35096767  0.30763810  0.43998422    -0.02800
C508        C  0.36238426  0.35649823  0.43199636     0.04000
N509        N  0.39050552  0.38021562  0.40533487     0.66500
H510        H  0.34860565  0.41708430  0.44191575     0.15400
H511        H  0.31455469  0.24988239  0.47437855     0.15100
N512        N  0.28550656  0.29687228  0.01212745     0.74200
O513        O  0.36776438  0.37484529  0.38084662    -0.39300
O514        O  0.43541494  0.41483831  0.40761447    -0.39200
O515        O  0.24014249  0.26297317  0.01069684    -0.39900
O516        O  0.30955324  0.30211043  0.03606884    -0.40000
C517        C  0.70061930  0.97498481  0.37523335    -0.12200
C518        C  0.65253063  0.95479660  0.38810711     0.04800
C519        C  0.62602305  0.98078599  0.38368851    -0.07500
C520        C  0.64883432  0.02662744  0.36766382    -0.08300
C521        C  0.69787782  0.04719198  0.35606305    -0.02800
C522        C  0.72300334  0.01984739  0.35939102     0.04000
N523        N  0.77246784  0.03796206  0.34759432     0.66500
H524        H  0.72204768  0.95606870  0.37767044     0.15400
H525        H  0.62909147  0.04726731  0.36554835     0.15100
N526        N  0.57624405  0.96139873  0.39506623     0.74200
O527        O  0.80948673  0.05939893  0.36503815    -0.39300
O528        O  0.77793135  0.02197992  0.32251052    -0.39200
O529        O  0.56938539  0.97840230  0.41937133    -0.39900
O530        O  0.53969404  0.93707436  0.37769465    -0.40000
C531        C  0.71403510  0.67083850  0.44348121    -0.12200
C532        C  0.69679397  0.64921883  0.47225803     0.04800
C533        C  0.65316427  0.64722547  0.48403602    -0.07500
C534        C  0.62971549  0.66891968  0.46772655    -0.08300
C535        C  0.64821957  0.69152749  0.43943910    -0.02800
C536        C  0.69033088  0.69164785  0.42715708     0.04000
N537        N  0.71184632  0.71611834  0.39914400     0.66500
H538        H  0.74726129  0.67278095  0.43359957     0.15400
H539        H  0.59802624  0.66992462  0.47776130     0.15100
N540        N  0.63164248  0.62821710  0.01563807     0.74200
O541        O  0.74583367  0.76143363  0.39918164    -0.39300
O542        O  0.70556080  0.69020122  0.37588021    -0.39200
O543        O  0.64331590  0.65871799  0.03712411    -0.39900
O544        O  0.59623184  0.58396434  0.01915981    -0.40000
C545        C  0.42197162  0.61262521  0.43392363    -0.12200
C546        C  0.43215292  0.65723590  0.44829216     0.04800
C547        C  0.39399955  0.65765999  0.46585541    -0.07500
C548        C  0.34739236  0.61358978  0.46914926    -0.08300
C549        C  0.33810466  0.56885455  0.45526697    -0.02800
C550        C  0.37569540  0.56902583  0.43706720     0.04000
N551        N  0.36732173  0.52530482  0.42124200     0.66500
H552        H  0.44977381  0.61166370  0.41924840     0.15400
H553        H  0.31077907  0.61552473  0.98154592     0.15100
N554        N  0.39202462  0.70517624  0.97814516     0.74200
O555        O  0.34207249  0.51342394  0.39729116    -0.39300
O556        O  0.39526405  0.50722073  0.42645115    -0.39200
O557        O  0.37826108  0.72301476  0.47374999    -0.39900
O558        O  0.41049372  0.71737186  0.00417383    -0.40000
C559        C  0.63194200  0.96343384  0.11557697    -0.12200
C560        C  0.63848244  0.96037683  0.14674234     0.04800
C561        C  0.66914411  0.00505300  0.16233196    -0.07500
C562        C  0.69466465  0.05049978  0.14635890    -0.08300
C563        C  0.68956510  0.05334168  0.11486750    -0.02800
C564        C  0.65598734  0.00903378  0.09969617     0.04000
N565        N  0.64896418  0.00884041  0.06789694     0.66500
H566        H  0.60939045  0.92905544  0.10283304     0.15400
H567        H  0.72037171  0.08390211  0.15873379     0.15100
N568        N  0.67831987  0.00440297  0.19381634     0.74200
O569        O  0.67485474  0.99832563  0.05046328    -0.39300
O570        O  0.60965810  0.00684833  0.05807130    -0.39200
O571        O  0.71762513  0.00497760  0.20229038    -0.39900
O572        O  0.65344742  0.01410984  0.21256781    -0.40000
C573        C  0.70102901  0.73020428  0.19993224    -0.12200
C574        C  0.65033627  0.70210227  0.19180572     0.04800
C575        C  0.62419131  0.65054438  0.19916071    -0.07500
C576        C  0.64864964  0.62929446  0.21528568    -0.08300
C577        C  0.69933486  0.65821403  0.22367674    -0.02800
C578        C  0.72533863  0.70927413  0.21546055     0.04000
N579        N  0.77656370  0.74130088  0.22354648     0.66500
H580        H  0.72243520  0.76975808  0.19458710     0.15400
H581        H  0.62819827  0.58977564  0.22065502     0.15100
N582        N  0.57301747  0.61939891  0.19084107     0.74200
O583        O  0.81057340  0.75219729  0.20407892    -0.39300
O584        O  0.78663017  0.76677679  0.24735652    -0.39200
O585        O  0.56286441  0.59291899  0.16745092    -0.39900
O586        O  0.53892769  0.60954101  0.21005754    -0.40000
C587        C  0.33791326  0.61460897  0.21983613    -0.12200
C588        C  0.33562402  0.57054022  0.20919452     0.04800
C589        C  0.37972450  0.57358309  0.19767288    -0.07500
C590        C  0.42477609  0.61887419  0.19806063    -0.08300
C591        C  0.42805448  0.66289630  0.20951233    -0.02800
C592        C  0.38351487  0.66052530  0.22009267     0.04000
N593        N  0.38425609  0.70340553  0.23264828     0.66500
H594        H  0.30477149  0.61289664  0.22969319     0.15400
H595        H  0.45757898  0.61925881  0.18873387     0.15100
N596        N  0.37986202  0.53062329  0.18597209     0.74200
O597        O  0.37202590  0.72917889  0.21653285    -0.39300
O598        O  0.38684388  0.70924732  0.26086729    -0.39200
O599        O  0.36861370  0.51896162  0.15870979    -0.39900
O600        O  0.40361795  0.51349215  0.19989735    -0.40000
C601        C  0.65257437  0.85769659  0.31549943    -0.12200
C602        C  0.64896705  0.81176510  0.32270182     0.04800
C603        C  0.64810522  0.78084806  0.29909523    -0.07500
C604        C  0.64644296  0.79421142  0.26904653    -0.08300
C605        C  0.64438442  0.83745829  0.26208030    -0.02800
C606        C  0.64954415  0.87041327  0.28550099     0.04000
N607        N  0.64636319  0.91413107  0.27954349     0.66500
H608        H  0.65219973  0.88139132  0.33342799     0.15400
H609        H  0.64187987  0.76818335  0.25125930     0.15100
N610        N  0.64420166  0.73369177  0.30532547     0.74200
O611        O  0.60470672  0.91231797  0.28234402    -0.39300
O612        O  0.68602063  0.95605185  0.27825672    -0.39200
O613        O  0.60160631  0.69473936  0.30557508    -0.39900
O614        O  0.68293304  0.72968029  0.30363979    -0.40000
C615        C  0.58088230  0.83016018  0.03096164    -0.12200
C616        C  0.61869993  0.83157619  0.01260676     0.04800
C617        C  0.65571917  0.82369206  0.02621435    -0.07500
C618        C  0.65196870  0.81158546  0.05725836    -0.08300
C619        C  0.61087747  0.80552204  0.07459418    -0.02800
C620        C  0.57576343  0.81593741  0.06103221     0.04000
N621        N  0.53355819  0.81131643  0.07734088     0.66500
H622        H  0.55254751  0.83707980  0.02141474     0.15400
H623        H  0.67968405  0.80435358  0.06737198     0.15100
N624        N  0.69522055  0.82459978  0.00871479     0.74200
O625        O  0.53549261  0.85002097  0.08790252    -0.39300
O626        O  0.49147207  0.77227460  0.07438932    -0.39200
O627        O  0.73906318  0.86468206  0.50946325    -0.39900
O628        O  0.69073763  0.78406121  0.99932230    -0.40000
C629        C  0.97868683  0.70295994  0.28296155    -0.12200
C630        C  0.95810183  0.65300275  0.27402962     0.04800
C631        C  0.98507855  0.62824837  0.28091850    -0.07500
C632        C  0.02990162  0.65311531  0.29793776    -0.08300
C633        C  0.04911943  0.70285201  0.30752962    -0.02800
C634        C  0.02247764  0.72742460  0.29968554     0.04000
N635        N  0.03908536  0.77766620  0.30882064     0.66500
H636        H  0.95958960  0.72345162  0.27762307     0.15400
H637        H  0.05084393  0.63425714  0.30249555     0.15100
N638        N  0.96906559  0.57920030  0.26986042     0.74200
O639        O  0.05866802  0.81247143  0.28959603    -0.39300
O640        O  0.02523376  0.78566236  0.33401728    -0.39200
O641        O  0.97987140  0.57424844  0.24307310    -0.39900
O642        O  0.95700473  0.54389137  0.28831668    -0.40000
C643        C  0.32280783  0.95996648  0.38456315    -0.12200
C644        C  0.31963417  0.95877012  0.35282750     0.04800
C645        C  0.34065013  0.00422272  0.33700024    -0.07500
C646        C  0.36019452  0.04942145  0.35301477    -0.08300
C647        C  0.36054157  0.05049253  0.38489120    -0.02800
C648        C  0.34318962  0.00512337  0.40060485     0.04000
N649        N  0.34054665  0.00346577  0.43277771     0.66500
H650        H  0.30634938  0.92519766  0.39714476     0.15400
H651        H  0.37341394  0.08377319  0.34047322     0.15100
N652        N  0.33799929  0.00463646  0.30485674     0.74200
O653        O  0.30080089  0.99598035  0.44575293    -0.39300
O654        O  0.37229863  0.99775427  0.44744011    -0.39200
O655        O  0.30039037  0.00293435  0.29250548    -0.39900
O656        O  0.36766386  0.99671039  0.28923489    -0.40000
C657        C  0.44402992  0.81782752  0.35535002    -0.12200
C658        C  0.43945673  0.77319920  0.36631792     0.04800
C659        C  0.39074281  0.73224239  0.37177684    -0.07500
C660        C  0.34854802  0.73746425  0.36672060    -0.08300
C661        C  0.35335560  0.78275878  0.35672009    -0.02800
C662        C  0.40224963  0.82349153  0.35121597     0.04000
N663        N  0.41074312  0.87167855  0.34251086     0.66500
H664        H  0.48096213  0.84987588  0.35139266     0.15400
H665        H  0.31154444  0.70555416  0.37071053     0.15100
N666        N  0.38309372  0.68612441  0.38410846     0.74200
O667        O  0.41406046  0.90205354  0.36261269    -0.39300
O668        O  0.42520402  0.88731567  0.31600139    -0.39200
O669        O  0.35242981  0.66587716  0.40562432    -0.39900
O670        O  0.39765688  0.66060923  0.36955053    -0.40000
C671        C  0.26552952  0.65924960  0.29755633    -0.12200
C672        C  0.23007234  0.66746977  0.28266044     0.04800
C673        C  0.19143581  0.62778430  0.26658404    -0.07500
C674        C  0.18858076  0.58115962  0.26583569    -0.08300
C675        C  0.22307307  0.57224354  0.28144502    -0.02800
C676        C  0.26188318  0.61202245  0.29750163     0.04000
N677        N  0.29480935  0.60390190  0.31612405     0.66500
H678        H  0.29420255  0.68871904  0.31116641     0.15400
H679        H  0.15908004  0.55172700  0.25262293     0.15100
N680        N  0.15488286  0.63433275  0.25071545     0.74200
O681        O  0.33964971  0.62035666  0.30792548    -0.39300
O682        O  0.28201673  0.58926304  0.34296836    -0.39200
O683        O  0.16084231  0.64400039  0.22285320    -0.39900
O684        O  0.11237824  0.61942174  0.26256719    -0.40000
C685        C  0.95069986  0.62507428  0.05225736    -0.12200
C686        C  0.95000003  0.63572234  0.02148275     0.04800
C687        C  0.99534327  0.66614505  0.00637468    -0.07500
C688        C  0.04015104  0.68909779  0.02266357    -0.08300
C689        C  0.04068946  0.68218172  0.05415950    -0.02800
C690        C  0.99562568  0.64760045  0.06863552     0.04000
N691        N  0.99386385  0.63849438  0.10030923     0.66500
H692        H  0.91566737  0.60172353  0.06409772     0.15400
H693        H  0.07443278  0.71482622  0.01085779     0.15100
N694        N  0.99561769  0.67839542  0.97527915     0.74200
O695        O  0.98423609  0.66429119  0.11825586    -0.39300
O696        O  0.99100213  0.59856092  0.10957485    -0.39200
O697        O  0.98300183  0.70999089  0.96793698    -0.39900
O698        O  0.99829645  0.65076913  0.95530218    -0.40000
C699        C  0.33878892  0.96775041  0.12198647    -0.12200
C700        C  0.29246160  0.95189975  0.10785394     0.04800
C701        C  0.26943899  0.98112891  0.11113969    -0.07500
C702        C  0.29267260  0.02504448  0.12774664    -0.08300
C703        C  0.34036992  0.04313912  0.14043385    -0.02800
C704        C  0.36243067  0.01251424  0.13886449     0.04000
N705        N  0.40605558  0.02386680  0.15597638     0.66500
H706        H  0.35518679  0.94382874  0.12138490     0.15400
H707        H  0.27346865  0.04627903  0.12973525     0.15100
N708        N  0.22277506  0.96746103  0.09690381     0.74200
O709        O  0.40359010  0.02443017  0.18438299    -0.39300
O710        O  0.44109962  0.02003253  0.14381767    -0.39200
O711        O  0.18393244  0.95370423  0.11282400    -0.39900
O712        O  0.22239787  0.97796587  0.06944140    -0.40000
C713        C  0.37801803  0.73314695  0.14397583    -0.12200
C714        C  0.42338937  0.77829337  0.13926856     0.04800
C715        C  0.42092705  0.82111807  0.13081559    -0.07500
C716        C  0.37452192  0.81799702  0.12731386    -0.08300
C717        C  0.32901291  0.77318915  0.13189624    -0.02800
C718        C  0.33115072  0.73035562  0.14070243     0.04000
N719        N  0.28656943  0.68450496  0.14770713     0.66500
H720        H  0.37884427  0.70017653  0.15149658     0.15400
H721        H  0.37463375  0.85168554  0.12035562     0.15100
N722        N  0.46491418  0.86830441  0.12497456     0.74200
O723        O  0.26930156  0.64950864  0.12875108    -0.39300
O724        O  0.27138685  0.67527047  0.17469769    -0.39200
O725        O  0.47165690  0.88682089  0.09882195    -0.39900
O726        O  0.48698047  0.89703883  0.14679762    -0.40000
C727        C  0.17898645  0.57105843  0.03137378    -0.12200
C728        C  0.22109031  0.56698232  0.03875821     0.04800
C729        C  0.26318082  0.60851205  0.05148212    -0.07500
C730        C  0.26264866  0.65315240  0.05593685    -0.08300
C731        C  0.22011473  0.65664995  0.04882558    -0.02800
C732        C  0.17809260  0.61502105  0.03626507     0.04000
N733        N  0.14640448  0.62500975  0.52212791     0.66500
H734        H  0.15827302  0.54796746  0.51533524     0.15400
H735        H  0.29450074  0.68420957  0.06672691     0.15100
N736        N  0.30521607  0.60504891  0.06176043     0.74200
O737        O  0.14880728  0.64231614  0.49601358    -0.39300
O738        O  0.10452869  0.60181914  0.53543467    -0.39200
O739        O  0.34710847  0.62992088  0.04869407    -0.39900
O740        O  0.30278836  0.58494220  0.08695865    -0.40000
C741        C  0.23852374  0.81850866  0.43737055    -0.12200
C742        C  0.19246315  0.80776684  0.42482326     0.04800
C743        C  0.15738922  0.81180894  0.44349085    -0.07500
C744        C  0.16703176  0.82166477  0.47461256    -0.08300
C745        C  0.21175358  0.82850636  0.48753073    -0.02800
C746        C  0.24866176  0.82924268  0.46801734     0.04000
N747        N  0.29683097  0.84060405  0.47887672     0.66500
H748        H  0.26715166  0.81807717  0.42319819     0.15400
H749        H  0.13812406  0.82106607  0.48897556     0.15100
N750        N  0.11055105  0.80266337  0.43175230     0.74200
O751        O  0.30595903  0.80559740  0.48320750    -0.39300
O752        O  0.33079631  0.87932818  0.97533682    -0.39200
O753        O  0.07471647  0.75840296  0.42971981    -0.39900
O754        O  0.10243370  0.83852504  0.42843384    -0.40000
C755        C  0.14117942  0.78819166  0.23052901    -0.12200
C756        C  0.18242315  0.83540474  0.23682324     0.04800
C757        C  0.20481228  0.86981377  0.21289754    -0.07500
C758        C  0.18884970  0.85482707  0.18306466    -0.08300
C759        C  0.15127236  0.80565039  0.17654395    -0.02800
C760        C  0.12573751  0.77299783  0.20079070     0.04000
N761        N  0.08676810  0.72288296  0.19547614     0.66500
H762        H  0.12373714  0.76107698  0.24861048     0.15400
H763        H  0.20938104  0.88030359  0.16471916     0.15100
N764        N  0.24655664  0.91845243  0.21815401     0.74200
O765        O  0.09735080  0.68842837  0.19423956    -0.39300
O766        O  0.04171472  0.71176423  0.19918622    -0.39200
O767        O  0.29017445  0.92743183  0.21151152    -0.39900
O768        O  0.23892541  0.95437656  0.22276065    -0.40000
O769        O  0.19177691  0.83914075  0.53891941    -0.85300
O770        O  0.11368425  0.75523731  0.55961364    -0.82400
C771        C  0.08769556  0.71261434  0.57076552     0.98100
O772        O  0.10158399  0.70159247  0.59506845    -0.82400
O773        O  0.17870121  0.69212219  0.57024844    -0.85100
C774        C  0.22131041  0.70208021  0.56066467     1.02700
O775        O  0.25917253  0.74541784  0.56433797    -0.77800
O776        O  0.24393431  0.81122182  0.53142287    -0.78000
C777        C  0.21651564  0.82710788  0.52108392     1.02600
O778        O  0.21248280  0.87459738  0.60151680    -0.85300
O779        O  0.13178050  0.79383254  0.62265693    -0.82400
C780        C  0.14890940  0.78346569  0.64601801     0.98200
O781        O  0.16997012  0.75761753  0.64386686    -0.82400
O782        O  0.24063665  0.73416043  0.62174908    -0.85000
C783        C  0.28198885  0.77441282  0.62493645     1.02600
O784        O  0.28559281  0.81398519  0.61500114    -0.77800
O785        O  0.28084899  0.88362509  0.58046742    -0.78000
C786        C  0.25851695  0.90066819  0.59641883     1.02600
Cr787      Cr  0.16478261  0.81332307  0.58108637     1.93700
Cr788      Cr  0.17417465  0.72576135  0.60653974     1.93200
Cr789      Cr  0.26298150  0.81179115  0.57367645     1.39100
O790        O  0.20057419  0.78380924  0.58677780    -1.23100
O791        O  0.19887928  0.86375509  0.78806662    -0.85300
O792        O  0.12265890  0.78187766  0.81194204    -0.82400
C793        C  0.09863763  0.73646170  0.81875543     0.98100
O794        O  0.11806662  0.71794669  0.83603420    -0.82400
O795        O  0.18656357  0.70983729  0.80146422    -0.85100
C796        C  0.22659082  0.71722931  0.78939999     1.02700
O797        O  0.26494000  0.76065639  0.79017447    -0.77800
O798        O  0.23361983  0.82412287  0.76689829    -0.78000
C799        C  0.20669260  0.84399201  0.76494279     1.02600
O800        O  0.24206115  0.88869852  0.85009230    -0.85300
O801        O  0.16047542  0.81029449  0.87352724    -0.82400
C802        C  0.18087705  0.79409079  0.89163483     0.98200
O803        O  0.19769182  0.76701919  0.88202067    -0.82400
O804        O  0.26212838  0.75041748  0.84857640    -0.85000
C805        C  0.30534804  0.78974700  0.84869694     1.02600
O806        O  0.31077694  0.82986422  0.83808461    -0.77800
O807        O  0.29228286  0.89957004  0.81240955    -0.78000
C808        C  0.28316143  0.91483939  0.83696927     1.02600
Cr809      Cr  0.18341063  0.83393905  0.83052776     1.93700
Cr810      Cr  0.19224798  0.74047372  0.84114622     1.93200
Cr811      Cr  0.27122140  0.82703300  0.80310933     1.39100
O812        O  0.21531640  0.80027009  0.82500562    -1.23100
O813        O  0.64002665  0.80928492  0.62562062    -0.85300
O814        O  0.63709664  0.88757414  0.64875428    -0.82400
C815        C  0.62162454  0.91364377  0.66124806     0.98100
O816        O  0.59394126  0.89719334  0.68465176    -0.82400
O817        O  0.50716952  0.82582619  0.65724192    -0.85100
C818        C  0.47246527  0.78499327  0.64745222     1.02700
O819        O  0.47705235  0.74620413  0.64819084    -0.77800
O820        O  0.55987594  0.76412523  0.61578728    -0.78000
C821        C  0.60408416  0.79300773  0.60700884     1.02600
O822        O  0.64714358  0.77948331  0.68758910    -0.85300
O823        O  0.65090889  0.86098759  0.71069970    -0.82400
C824        C  0.62179566  0.84248935  0.73341816     0.98200
O825        O  0.57501321  0.82192852  0.73056503    -0.82400
O826        O  0.48137935  0.75663076  0.70572096    -0.85000
C827        C  0.47743328  0.71371822  0.70574776     1.02600
O828        O  0.51414762  0.71024835  0.69682007    -0.77800
O829        O  0.58990667  0.71601659  0.66246433    -0.78000
C830        C  0.62705993  0.73435803  0.68027954     1.02600
Cr831      Cr  0.63915791  0.83199152  0.66844188     1.93700
Cr832      Cr  0.54220217  0.82395088  0.69339354     1.93200
Cr833      Cr  0.53800659  0.73812816  0.65668663     1.39100
O834        O  0.57333749  0.79816063  0.67256271    -1.23100
O835        O  0.64639830  0.84676077  0.96034575    -0.85300
O836        O  0.64084568  0.76351067  0.93897445    -0.82400
C837        C  0.62380599  0.72112546  0.92761709     0.98100
O838        O  0.59459212  0.70875434  0.90521391    -0.82400
O839        O  0.51077809  0.69946074  0.93388481    -0.85100
C840        C  0.47553850  0.70595742  0.94263998     1.02700
O841        O  0.48054821  0.74934074  0.94099792    -0.77800
O842        O  0.56644198  0.81443551  0.97093964    -0.78000
C843        C  0.61093654  0.83150995  0.97949504     1.02600
O844        O  0.65160840  0.88017875  0.89766818    -0.85300
O845        O  0.65313677  0.80043121  0.87610823    -0.82400
C846        C  0.62336891  0.78904433  0.85392972     0.98200
O847        O  0.57669973  0.76290126  0.85773059    -0.82400
O848        O  0.48559534  0.74003895  0.88315239    -0.85000
C849        C  0.48220642  0.77910761  0.88043598     1.02600
O850        O  0.51590001  0.81940024  0.89130076    -0.77800
O851        O  0.59557899  0.88924386  0.92283897    -0.78000
C852        C  0.63185826  0.90599748  0.90414765     1.02600
Cr853      Cr  0.64314172  0.82050862  0.91805347     1.93700
Cr854      Cr  0.54459364  0.73191488  0.89618291     1.93200
Cr855      Cr  0.54270172  0.81653543  0.93065185     1.39100
O856        O  0.57708497  0.79004229  0.91492117    -1.23100
O857        O  0.15487779  0.35061856  0.95497884    -0.85300
O858        O  0.24032124  0.36209366  0.97644188    -0.82400
C859        C  0.28329681  0.38161486  0.98728585     0.98100
O860        O  0.29590478  0.40928160  0.50996752    -0.82400
O861        O  0.30174791  0.49187187  0.97712140    -0.85100
C862        C  0.29108265  0.52294193  0.96601186     1.02700
O863        O  0.24691004  0.51632676  0.96873396    -0.77800
O864        O  0.17956473  0.42818968  0.94187424    -0.78000
C865        C  0.16493574  0.38361982  0.93480780     1.02600
O866        O  0.12459367  0.35106730  0.51963405    -0.85300
O867        O  0.20644826  0.35569185  0.54121582    -0.82400
C868        C  0.21475202  0.38803089  0.56154154     0.98200
O869        O  0.24218011  0.43377752  0.55576500    -0.82400
O870        O  0.26730800  0.52162769  0.52640120    -0.85000
C871        C  0.22785450  0.52439928  0.52936129     1.02600
O872        O  0.18679813  0.48803432  0.52143257    -0.77800
O873        O  0.10945462  0.40174414  0.99274042    -0.78000
C874        C  0.09759541  0.36939447  0.51357642     1.02600
Cr875      Cr  0.18375729  0.35921892  0.49876901     1.93700
Cr876      Cr  0.27334162  0.46043500  0.51638925     1.93200
Cr877      Cr  0.18103856  0.45509459  0.98197106     1.39100
O878        O  0.21386110  0.42522381  0.49890843    -1.23100
O879        O  0.15272813  0.35038869  0.70693247    -0.85300
O880        O  0.24055680  0.36488706  0.72705923    -0.82400
C881        C  0.28412542  0.38569977  0.73733694     0.98100
O882        O  0.29602025  0.41684541  0.75873640    -0.82400
O883        O  0.30227878  0.49504922  0.72602532    -0.85100
C884        C  0.29236398  0.52619973  0.71441709     1.02700
O885        O  0.24777062  0.51877564  0.71548750    -0.77800
O886        O  0.18126854  0.42706802  0.69081007    -0.78000
C887        C  0.16511930  0.38150019  0.68548564     1.02600
O888        O  0.12415564  0.35532411  0.76958823    -0.85300
O889        O  0.20816681  0.36074353  0.79036472    -0.82400
C890        C  0.21611068  0.39285935  0.81062531     0.98200
O891        O  0.24026742  0.43878075  0.80434951    -0.82400
O892        O  0.26145559  0.52570171  0.77395058    -0.85000
C893        C  0.22209116  0.52918310  0.77464014     1.02600
O894        O  0.18130172  0.49245447  0.76659394    -0.77800
O895        O  0.11048475  0.40549322  0.74164597    -0.78000
C896        C  0.09707215  0.37367486  0.76299738     1.02600
Cr897      Cr  0.18341953  0.36269149  0.74836786     1.93700
Cr898      Cr  0.27072725  0.46590116  0.76488715     1.93200
Cr899      Cr  0.18196470  0.45811428  0.72956191     1.39100
O900        O  0.21179571  0.42879500  0.74743156    -1.23100
O901        O  0.34002382  0.20133513  0.61967333    -0.85300
O902        O  0.34260359  0.12282231  0.64298577    -0.82400
C903        C  0.36009404  0.09646132  0.65249073     0.98100
O904        O  0.39749375  0.11547960  0.67003953    -0.82400
O905        O  0.47906719  0.18648666  0.63743275    -0.85100
C906        C  0.51287551  0.22725969  0.62668326     1.02700
O907        O  0.50838515  0.26583190  0.62872586    -0.77800
O908        O  0.41787787  0.24397351  0.60317980    -0.78000
C909        C  0.37158139  0.21756212  0.59804569     1.02600
O910        O  0.34939004  0.23898629  0.68236111    -0.85300
O911        O  0.34486584  0.15653313  0.70462973    -0.82400
C912        C  0.37903922  0.17068299  0.72430595     0.98200
O913        O  0.42438949  0.19038570  0.71655923    -0.82400
O914        O  0.51205351  0.25596197  0.68685509    -0.85000
C915        C  0.51684056  0.29917808  0.68893258     1.02600
O916        O  0.48228612  0.30586727  0.67938919    -0.77800
O917        O  0.39974919  0.29759413  0.65146204    -0.78000
C918        C  0.36961327  0.28354231  0.67370134     1.02600
Cr919      Cr  0.34942514  0.18267070  0.66214107     1.93700
Cr920      Cr  0.45017757  0.18872481  0.67655823     1.93200
Cr921      Cr  0.44902371  0.27357839  0.64179097     1.39100
O922        O  0.41588761  0.21462168  0.66002734    -1.23100
O923        O  0.34823010  0.15843592  0.95385096    -0.85300
O924        O  0.35064993  0.23806926  0.93044928    -0.82400
C925        C  0.37002329  0.28246773  0.92184099     0.98100
O926        O  0.40106861  0.29752317  0.89987462    -0.82400
O927        O  0.48286042  0.31031642  0.92982468    -0.85100
C928        C  0.51665434  0.30415232  0.94087583     1.02700
O929        O  0.51319492  0.26139670  0.93981016    -0.77800
O930        O  0.42653308  0.19689476  0.96821898    -0.78000
C931        C  0.38109654  0.18106786  0.97406877     1.02600
O932        O  0.35209777  0.12664646  0.89091510    -0.85300
O933        O  0.34799004  0.20425757  0.86856975    -0.82400
C934        C  0.38109553  0.21563057  0.84819032     0.98200
O935        O  0.42665304  0.24461461  0.85376419    -0.82400
O936        O  0.51618319  0.27064391  0.88223594    -0.85000
C937        C  0.52103773  0.23203015  0.88238630     1.02600
O938        O  0.48439131  0.19119120  0.89070884    -0.77800
O939        O  0.40324103  0.11948147  0.92150815    -0.78000
C940        C  0.37243725  0.10260629  0.89974069     1.02600
Cr941      Cr  0.35407648  0.18395815  0.91092869     1.93700
Cr942      Cr  0.45370454  0.27655484  0.89221486     1.93200
Cr943      Cr  0.45404589  0.19322628  0.92908464     1.39100
O944        O  0.42039978  0.21794700  0.91085422    -1.23100
O945        O  0.80892255  0.15405562  0.54855465    -0.85300
O946        O  0.88430274  0.23859789  0.57048587    -0.82400
C947        C  0.90822880  0.28339327  0.57855460     0.98100
O948        O  0.88836275  0.30031551  0.59673489    -0.82400
O949        O  0.82113992  0.30541120  0.56023224    -0.85100
C950        C  0.78137815  0.29968672  0.54910435     1.02700
O951        O  0.74260066  0.25648143  0.54980124    -0.77800
O952        O  0.76987217  0.18951156  0.52765082    -0.78000
C953        C  0.79668141  0.16953082  0.52534040     1.02600
O954        O  0.76733448  0.12957105  0.61049214    -0.85300
O955        O  0.84693957  0.21107709  0.63216348    -0.82400
C956        C  0.82327936  0.22376908  0.65025858     0.98200
O957        O  0.80650358  0.25119894  0.64143549    -0.82400
O958        O  0.74476824  0.27092094  0.60703496    -0.85000
C959        C  0.70165683  0.23183921  0.60778891     1.02600
O960        O  0.69745834  0.19076172  0.60010342    -0.77800
O961        O  0.71274870  0.11789958  0.57572120    -0.78000
C962        C  0.72459912  0.10323554  0.59948712     1.02600
Cr963      Cr  0.82447446  0.18544406  0.59006555     1.93700
Cr964      Cr  0.81407589  0.27789082  0.60059909     1.93200
Cr965      Cr  0.73478674  0.19019509  0.56445328     1.39100
O966        O  0.79120883  0.21769787  0.58508500    -1.23100
O967        O  0.80570612  0.16377081  0.79485057    -0.85300
O968        O  0.88439356  0.24428280  0.81844746    -0.82400
C969        C  0.91041890  0.28552103  0.83100481     0.98100
O970        O  0.89304819  0.29708625  0.85381611    -0.82400
O971        O  0.82258987  0.31540452  0.82712597    -0.85100
C972        C  0.78184446  0.30867760  0.81631524     1.02700
O973        O  0.74340260  0.26502931  0.81609687    -0.77800
O974        O  0.76111630  0.19936536  0.78466953    -0.78000
C975        C  0.78660533  0.18013316  0.77600169     1.02600
O976        O  0.77356660  0.12586121  0.85563418    -0.85300
O977        O  0.85493757  0.20247997  0.87982147    -0.82400
C978        C  0.83371640  0.21022358  0.90213597     0.98200
O979        O  0.81458983  0.23767057  0.89928536    -0.82400
O980        O  0.75268812  0.26975682  0.87465385    -0.85000
C981        C  0.70889942  0.23196266  0.87508202     1.02600
O982        O  0.70196431  0.19162331  0.86410037    -0.77800
O983        O  0.71103945  0.12215560  0.83032654    -0.78000
C984        C  0.72909983  0.10157232  0.84689077     1.02600
Cr985      Cr  0.82718374  0.18682182  0.83750147     1.93700
Cr986      Cr  0.81944291  0.27558856  0.86251500     1.93200
Cr987      Cr  0.73386412  0.19597640  0.82486733     1.39100
O988        O  0.79357830  0.21946580  0.84126879    -1.23100
O989        O  0.84581375  0.64983461  0.95658365    -0.85300
O990        O  0.76863188  0.65174222  0.98163882    -0.82400
C991        C  0.72367864  0.63163809  0.98987629     0.98100
O992        O  0.71009674  0.59873618  0.50934159    -0.82400
O993        O  0.69621007  0.51713506  0.98093043    -0.85100
C994        C  0.70103865  0.48225753  0.97023142     1.02700
O995        O  0.74313617  0.48460574  0.97157861    -0.77800
O996        O  0.80338582  0.57179414  0.94215528    -0.78000
C997        C  0.82080137  0.61733943  0.93656408     1.02600
O998        O  0.88040677  0.64128481  0.51926162    -0.85300
O999        O  0.80749934  0.65437698  0.54184947    -0.82400
C1000       C  0.78868843  0.62265503  0.56304779     0.98200
O1001       O  0.76112163  0.57688749  0.55743455    -0.82400
O1002       O  0.73823013  0.48703727  0.53130358    -0.85000
C1003       C  0.77684590  0.48192659  0.53165770     1.02600
O1004       O  0.81678549  0.51383963  0.51898860    -0.77800
O1005       O  0.88408671  0.59620012  0.98501020    -0.78000
C1006       C  0.90271186  0.62064551  0.50806422     1.02600
Cr1007     Cr  0.82255745  0.64551348  0.00009962     1.93700
Cr1008     Cr  0.73060899  0.54681732  0.51890722     1.93200
Cr1009     Cr  0.81072270  0.54502533  0.98034045     1.39100
O1010       O  0.78757479  0.57945474  0.00000048    -1.23100
O1011       O  0.85003668  0.65036585  0.70755383    -0.85300
O1012       O  0.77018142  0.65331012  0.72893220    -0.82400
C1013       C  0.72588244  0.63651048  0.73770753     0.98100
O1014       O  0.70684067  0.60116517  0.75698568    -0.82400
O1015       O  0.69502773  0.51625113  0.72996985    -0.85100
C1016       C  0.70097660  0.48136135  0.72043627     1.02700
O1017       O  0.74355417  0.48446919  0.72350039    -0.77800
O1018       O  0.80976364  0.57178084  0.69380057    -0.78000
C1019       C  0.82818615  0.61738727  0.68736914     1.02600
O1020       O  0.87744027  0.64673859  0.77074650    -0.85300
O1021       O  0.80178125  0.65680153  0.79155549    -0.82400
C1022       C  0.78195855  0.62484013  0.81262589     0.98200
O1023       O  0.75494995  0.57915346  0.80668201    -0.82400
O1024       O  0.73390856  0.48963439  0.78155999    -0.85000
C1025       C  0.77256096  0.48511368  0.78482078     1.02600
O1026       O  0.81364902  0.51633486  0.77287385    -0.77800
O1027       O  0.88649819  0.59653724  0.74035622    -0.78000
C1028       C  0.90434460  0.63052256  0.76030592     1.02600
Cr1029     Cr  0.82229392  0.64674687  0.74971125     1.93700
Cr1030     Cr  0.72721462  0.54925113  0.76765453     1.93200
Cr1031     Cr  0.81201547  0.54530948  0.73366128     1.39100
O1032       O  0.78708808  0.58064185  0.75038418    -1.23100
C1033       C  0.84634352  0.66745819  0.88837205    -0.12200
C1034       C  0.80895922  0.63039355  0.90667932     0.04800
C1035       C  0.76018504  0.60112890  0.89470093    -0.07500
C1036       C  0.75093950  0.60679421  0.86469895    -0.08300
C1037       C  0.78978282  0.63832597  0.84512714    -0.02800
C1038       C  0.83734519  0.67119059  0.85754298     0.04000
N1039       N  0.87840475  0.70393763  0.83869250     0.66500
H1040       H  0.88379827  0.69045348  0.89722488     0.15400
H1041       H  0.71393006  0.58169138  0.85579787     0.15100
N1042       N  0.72076185  0.56100131  0.91139723     0.74200
O1043       O  0.88658661  0.74761882  0.83391199    -0.39300
O1044       O  0.91277548  0.69400378  0.83363270    -0.39200
O1045       O  0.68580219  0.56647605  0.92209748    -0.39900
O1046       O  0.71266478  0.51731992  0.90679345    -0.40000
C1047       C  0.75966768  0.60676013  0.61531173    -0.12200
C1048       C  0.79819028  0.63671917  0.59529220     0.04800
C1049       C  0.84644205  0.66915194  0.60695127    -0.07500
C1050       C  0.85659679  0.66524574  0.63766645    -0.08300
C1051       C  0.81851268  0.63004454  0.65671379    -0.02800
C1052       C  0.76932615  0.60291183  0.64540506     0.04000
N1053       N  0.72867900  0.56818114  0.66375049     0.66500
H1054       H  0.72200856  0.58272158  0.60700135     0.15400
H1055       H  0.89431534  0.68779541  0.64613748     0.15100
N1056       N  0.88545456  0.70451347  0.58772340     0.74200
O1057       O  0.70222898  0.58275728  0.67727265    -0.39300
O1058       O  0.71085837  0.52216853  0.65897663    -0.39200
O1059       O  0.88384137  0.74213510  0.57818158    -0.39900
O1060       O  0.92073960  0.69758121  0.57950320    -0.40000
C1061       C  0.80789692  0.39832815  0.82359536    -0.12200
C1062       C  0.77734986  0.35311111  0.80837912     0.04800
C1063       C  0.74057606  0.35070208  0.78851252    -0.07500
C1064       C  0.73650221  0.39339198  0.78325387    -0.08300
C1065       C  0.76861562  0.43893593  0.79746145    -0.02800
C1066       C  0.80345432  0.44073619  0.81849155     0.04000
N1067       N  0.83249570  0.48448850  0.83614759     0.66500
H1068       H  0.83459317  0.40057388  0.84009006     0.15400
H1069       H  0.70999039  0.39156431  0.76718066     0.15100
N1070       N  0.70894752  0.30618494  0.77210511     0.74200
O1071       O  0.87856505  0.51206072  0.83055484    -0.39300
O1072       O  0.81506598  0.48906124  0.86100238    -0.39200
O1073       O  0.66739182  0.27410407  0.78330303    -0.39900
O1074       O  0.71784991  0.30361088  0.74455421    -0.40000
C1075       C  0.81990529  0.39148166  0.55102732    -0.12200
C1076       C  0.77860413  0.34541387  0.54258829     0.04800
C1077       C  0.73392619  0.34424432  0.53397000    -0.07500
C1078       C  0.73194385  0.38880796  0.53350635    -0.08300
C1079       C  0.77404193  0.43480099  0.54127901    -0.02800
C1080       C  0.81775357  0.43535552  0.55091075     0.04000
N1081       N  0.86054954  0.48044839  0.56084608     0.66500
H1082       H  0.85416215  0.39369018  0.55891192     0.15400
H1083       H  0.69839125  0.38783431  0.52532768     0.15100
N1084       N  0.69063215  0.29848171  0.52535261     0.74200
O1085       O  0.86259858  0.49377080  0.58793664    -0.39300
O1086       O  0.89997530  0.50011512  0.54496196    -0.39200
O1087       O  0.65240182  0.27881928  0.54225450    -0.39900
O1088       O  0.69025528  0.27607193  0.99999160    -0.40000
C1089       C  0.77548317  0.13720357  0.97336820    -0.12200
C1090       C  0.81299046  0.16483875  0.99420238     0.04800
C1091       C  0.86125547  0.19989434  0.98329870    -0.07500
C1092       C  0.86930126  0.21085303  0.95231434    -0.08300
C1093       C  0.82990590  0.18722828  0.93195181    -0.02800
C1094       C  0.78339226  0.14813375  0.94255434     0.04000
N1095       N  0.74261477  0.12048623  0.92267791     0.66500
H1096       H  0.73812028  0.11026387  0.98129354     0.15400
H1097       H  0.90522606  0.24110014  0.94458356     0.15100
N1098       N  0.90047793  0.23015904  0.00348949     0.74200
O1099       O  0.72513464  0.07398518  0.92099541    -0.39300
O1100       O  0.71538361  0.13839016  0.91513483    -0.39200
O1101       O  0.93369065  0.22264341  0.50951396    -0.39900
O1102       O  0.91309728  0.27556772  0.00574421    -0.40000
C1103       C  0.84834410  0.20117537  0.69891900    -0.12200
C1104       C  0.81237072  0.20489508  0.68156208     0.04800
C1105       C  0.76509387  0.19075086  0.69456169    -0.07500
C1106       C  0.75609381  0.17702046  0.72476173    -0.08300
C1107       C  0.79367465  0.17859842  0.74311360    -0.02800
C1108       C  0.83955350  0.18856873  0.72973302     0.04000
N1109       N  0.87879388  0.18986491  0.74739626     0.66500
H1110       H  0.88435113  0.21079971  0.68901002     0.15400
H1111       H  0.72019479  0.16838706  0.73445942     0.15100
N1112       N  0.72622257  0.19211683  0.67782483     0.74200
O1113       O  0.88244827  0.15111137  0.74942738    -0.39300
O1114       O  0.91526024  0.23142171  0.75513322    -0.39200
O1115       O  0.68956247  0.15172034  0.66878292    -0.39900
O1116       O  0.72179325  0.23048085  0.67940113    -0.40000
C1117       C  0.57512765  0.19556297  0.89305481    -0.12200
C1118       C  0.57094963  0.23494705  0.88003377     0.04800
C1119       C  0.61513169  0.27681301  0.86891692    -0.07500
C1120       C  0.66116777  0.27731468  0.86995622    -0.08300
C1121       C  0.66429699  0.23677178  0.88201970    -0.02800
C1122       C  0.62075224  0.19629277  0.89429639     0.04000
N1123       N  0.62227655  0.15560137  0.90850167     0.66500
H1124       H  0.54265662  0.16366721  0.90301636     0.15400
H1125       H  0.69405530  0.30835685  0.85967312     0.15100
N1126       N  0.61364654  0.31773162  0.85504226     0.74200
O1127       O  0.63054205  0.15750882  0.93644169    -0.39300
O1128       O  0.60409377  0.11420593  0.89512475    -0.39200
O1129       O  0.62749392  0.35737593  0.86976392    -0.39900
O1130       O  0.60955369  0.31833930  0.82677071    -0.40000
C1131       C  0.60884793  0.34895547  0.94706678    -0.12200
C1132       C  0.56331541  0.34869808  0.95041046     0.04800
C1133       C  0.56442851  0.39362065  0.95810742    -0.07500
C1134       C  0.60999459  0.43661080  0.96289759    -0.08300
C1135       C  0.65550063  0.43700787  0.96001333    -0.02800
C1136       C  0.65483608  0.39282529  0.95120391     0.04000
N1137       N  0.70009355  0.39230065  0.94488631     0.66500
H1138       H  0.60894110  0.31554926  0.93967843     0.15400
H1139       H  0.60927066  0.47012035  0.96926650     0.15100
N1140       N  0.52000280  0.39702306  0.96114772     0.74200
O1141       O  0.71372816  0.36912357  0.96228109    -0.39300
O1142       O  0.71966884  0.40489790  0.91897607    -0.39200
O1143       O  0.50938724  0.40755646  0.98663881    -0.39900
O1144       O  0.50228528  0.40595565  0.93793844    -0.40000
C1145       C  0.60659364  0.27606510  0.62151858    -0.12200
C1146       C  0.56111040  0.23118887  0.61709085     0.04800
C1147       C  0.56318462  0.18820169  0.60912391    -0.07500
C1148       C  0.60899718  0.18949399  0.60783606    -0.08300
C1149       C  0.65462814  0.23361656  0.61303882    -0.02800
C1150       C  0.65313717  0.27779337  0.61928260     0.04000
N1151       N  0.69805502  0.32453050  0.62349613     0.66500
H1152       H  0.60607604  0.30964726  0.62795037     0.15400
H1153       H  0.60841343  0.15516198  0.60196944     0.15100
N1154       N  0.51884569  0.14231380  0.60243790     0.74200
O1155       O  0.71517103  0.35536222  0.60195816    -0.39300
O1156       O  0.71335973  0.33940092  0.64986302    -0.39200
O1157       O  0.50309153  0.13361447  0.57568716    -0.39900
O1158       O  0.50374815  0.10661692  0.62090876    -0.40000
C1159       C  0.56778871  0.39085437  0.69529575    -0.12200
C1160       C  0.56471630  0.34418995  0.69829715     0.04800
C1161       C  0.60869151  0.34332836  0.70625558    -0.07500
C1162       C  0.65398917  0.38855990  0.71093738    -0.08300
C1163       C  0.65606846  0.43510242  0.70913007    -0.02800
C1164       C  0.61209885  0.43551738  0.70048817     0.04000
N1165       N  0.61115574  0.48089705  0.69640614     0.66500
H1166       H  0.53536630  0.39328691  0.68855324     0.15400
H1167       H  0.68684698  0.38701791  0.71725091     0.15100
N1168       N  0.60764690  0.29713406  0.71114640     0.74200
O1169       O  0.60745007  0.49385382  0.66998503    -0.39300
O1170       O  0.59757427  0.49759092  0.71824525    -0.39200
O1171       O  0.63283616  0.28496895  0.69425120    -0.39900
O1172       O  0.58899974  0.27315998  0.73528930    -0.40000
C1173       C  0.33022529  0.17547101  0.76885406    -0.12200
C1174       C  0.36780938  0.16662556  0.75709723     0.04800
C1175       C  0.40148963  0.16369980  0.77727421    -0.07500
C1176       C  0.40249537  0.17721585  0.80717919    -0.08300
C1177       C  0.36949207  0.19229186  0.81816723    -0.02800
C1178       C  0.33045977  0.18755712  0.79961659     0.04000
N1179       N  0.29261226  0.19688619  0.81132380     0.66500
H1180       H  0.30316269  0.17662687  0.75388794     0.15400
H1181       H  0.43080956  0.17761840  0.82181029     0.15100
N1182       N  0.43718740  0.14996296  0.76735217     0.74200
O1183       O  0.30424943  0.24013799  0.82010151    -0.39300
O1184       O  0.25057214  0.16040155  0.81874956    -0.39200
O1185       O  0.48280227  0.18303416  0.76496348    -0.39900
O1186       O  0.42522660  0.10454353  0.76758088    -0.40000
C1187       C  0.38589098  0.24520734  0.54547245    -0.12200
C1188       C  0.35668130  0.20699268  0.56580654     0.04800
C1189       C  0.32581362  0.15823346  0.55427659    -0.07500
C1190       C  0.32888849  0.14820474  0.52343406    -0.08300
C1191       C  0.36373201  0.18573863  0.50426850    -0.02800
C1192       C  0.39131379  0.23490835  0.51560415     0.04000
N1193       N  0.43020149  0.27409879  0.49835410     0.66500
H1194       H  0.40984661  0.28291350  0.55367792     0.15400
H1195       H  0.30762591  0.11015773  0.51528673     0.15100
N1196       N  0.29681747  0.11727863  0.57400661     0.74200
O1197       O  0.42141176  0.30533635  0.48569464    -0.39300
O1198       O  0.48290099  0.29405109  0.00490737    -0.39200
O1199       O  0.25187435  0.10503439  0.57948717    -0.39900
O1200       O  0.31093851  0.08596188  0.57847127    -0.40000
C1201       C  0.97004722  0.35126761  0.79499599    -0.12200
C1202       C  0.96190767  0.31764262  0.81870487     0.04800
C1203       C  0.99904327  0.30497610  0.82436237    -0.07500
C1204       C  0.04224486  0.32456917  0.80631890    -0.08300
C1205       C  0.05003671  0.35654829  0.78160562    -0.02800
C1206       C  0.01364473  0.37100687  0.77662553     0.04000
N1207       N  0.01906715  0.40390461  0.75245873     0.66500
H1208       H  0.94109210  0.36017779  0.78964199     0.15400
H1209       H  0.06940240  0.31313843  0.81149189     0.15100
N1210       N  0.99196130  0.26941037  0.84722116     0.74200
O1211       O  0.99877309  0.38581514  0.72745670    -0.39300
O1212       O  0.03355725  0.44910269  0.75807860    -0.39200
O1213       O  0.97608393  0.22454111  0.83992357    -0.42300
O1214       O  0.01244165  0.28468801  0.87252967    -0.40000
C1215       C  0.34108322  0.38724470  0.69632438    -0.12200
C1216       C  0.31872410  0.36980067  0.72485663     0.04800
C1217       C  0.31862097  0.32799814  0.73719375    -0.07500
C1218       C  0.33710232  0.30232388  0.72038404    -0.08300
C1219       C  0.35683305  0.31749435  0.69100375    -0.02800
C1220       C  0.36123401  0.36232823  0.67965305     0.04000
N1221       N  0.38348119  0.38173844  0.65084531     0.66500
H1222       H  0.34011565  0.41858321  0.68608180     0.15400
H1223       H  0.33480379  0.26920653  0.73039139     0.15100
N1224       N  0.29665184  0.30915142  0.76612018     0.74200
O1225       O  0.35572957  0.37218851  0.62811960    -0.39300
O1226       O  0.42813035  0.41736759  0.64954482    -0.39200
O1227       O  0.25610362  0.26812442  0.76821539    -0.39900
O1228       O  0.32084272  0.33034196  0.78961106    -0.40000
C1229       C  0.18428572  0.34368339  0.89146887    -0.12200
C1230       C  0.16340843  0.37232123  0.90212497     0.04800
C1231       C  0.15218026  0.39947723  0.88102594    -0.07500
C1232       C  0.16738373  0.40269674  0.85105375    -0.08300
C1233       C  0.19298722  0.37858714  0.84100695    -0.02800
C1234       C  0.19858117  0.34616903  0.86091061     0.04000
N1235       N  0.22192242  0.31868172  0.85110448     0.66500
H1236       H  0.19312594  0.32244882  0.90725912     0.15400
H1237       H  0.16072763  0.42601490  0.83562137     0.15100
N1238       N  0.12738735  0.42608814  0.88996285     0.74200
O1239       O  0.26849072  0.33703749  0.85433412    -0.39300
O1240       O  0.19511875  0.27303427  0.84472390    -0.39200
O1241       O  0.15239977  0.47302062  0.89226246    -0.39900
O1242       O  0.08029731  0.40478934  0.88805289    -0.40000
C1243       C  0.19746778  0.34257701  0.61127197    -0.12200
C1244       C  0.19050770  0.37431223  0.59177123     0.04800
C1245       C  0.16431831  0.39791696  0.60273223    -0.07500
C1246       C  0.14965157  0.39295953  0.63286329    -0.08300
C1247       C  0.16220452  0.36678189  0.65333170    -0.02800
C1248       C  0.18366638  0.33873869  0.64204082     0.04000
N1249       N  0.19538177  0.30956379  0.66173452     0.66500
H1250       H  0.21679011  0.32356299  0.60319169     0.15400
H1251       H  0.13271301  0.41429685  0.64096867     0.15100
N1252       N  0.15669462  0.43162671  0.58460731     0.74200
O1253       O  0.16201328  0.26525556  0.66767644    -0.39300
O1254       O  0.24066669  0.32284123  0.66643927    -0.39200
O1255       O  0.11262640  0.41869397  0.57671559    -0.39900
O1256       O  0.18783322  0.47760538  0.58692854    -0.40000
C1257       C  0.02128136  0.37405887  0.53093624    -0.12200
C1258       C  0.04870162  0.34875022  0.53044056     0.04800
C1259       C  0.03158751  0.30580259  0.54919778    -0.07500
C1260       C  0.98881470  0.28939617  0.56709525    -0.08300
C1261       C  0.96039210  0.31317322  0.56677186    -0.02800
C1262       C  0.97748397  0.35670727  0.54888980     0.04000
N1263       N  0.94940908  0.38195097  0.54728042     0.66500
H1264       H  0.03385834  0.40749211  0.51739865     0.15400
H1265       H  0.97580251  0.25534104  0.58014599     0.15100
N1266       N  0.05577172  0.27657690  0.54964166     0.74200
O1267       O  0.95974397  0.41762444  0.56504881    -0.39300
O1268       O  0.92348329  0.37673520  0.52420548    -0.39200
O1269       O  0.08134147  0.27860480  0.57227844    -0.39900
O1270       O  0.04264483  0.24138167  0.53104650    -0.40000
C1271       C  0.34309379  0.38587371  0.94762088    -0.12200
C1272       C  0.31712854  0.36512214  0.97481914     0.04800
C1273       C  0.31232618  0.32003466  0.98496428    -0.07500
C1274       C  0.33043495  0.29518578  0.96729369    -0.08300
C1275       C  0.35504472  0.31447757  0.93936161    -0.02800
C1276       C  0.36332911  0.36182904  0.93023010     0.04000
N1277       N  0.38976544  0.38484344  0.90296771     0.66500
H1278       H  0.34512229  0.41974626  0.93889258     0.15400
H1279       H  0.32430702  0.25955358  0.97572280     0.15100
N1280       N  0.27764462  0.28852604  0.51142059     0.74200
O1281       O  0.36587955  0.37604605  0.87863473    -0.39300
O1282       O  0.43340071  0.42211824  0.90439811    -0.39200
O1283       O  0.23219814  0.25522812  0.50902213    -0.39900
O1284       O  0.30014100  0.29262844  0.53585889    -0.40000
C1285       C  0.70018102  0.97439515  0.87445962    -0.12200
C1286       C  0.65351443  0.95605199  0.88904023     0.04800
C1287       C  0.62903274  0.98438374  0.88665836    -0.07500
C1288       C  0.65179289  0.02987614  0.87028669    -0.08300
C1289       C  0.69947893  0.04862174  0.85696421    -0.02800
C1290       C  0.72310823  0.01967098  0.85888165     0.04000
N1291       N  0.77145841  0.03638440  0.84572984     0.66500
H1292       H  0.72012686  0.95380657  0.87545888     0.15400
H1293       H  0.63360097  0.05214587  0.86967939     0.15100
N1294       N  0.58208466  0.96858383  0.90134492     0.74200
O1295       O  0.80970358  0.05630525  0.86230986    -0.39300
O1296       O  0.77450643  0.02062927  0.82001484    -0.39200
O1297       O  0.58143470  0.98641019  0.92682617    -0.39900
O1298       O  0.54221972  0.94668798  0.88628748    -0.40000
C1299       C  0.70663037  0.66682282  0.94401805    -0.12200
C1300       C  0.69151957  0.64753585  0.97347798     0.04800
C1301       C  0.64873648  0.64666394  0.98586071    -0.07500
C1302       C  0.62447588  0.66763224  0.96953052    -0.08300
C1303       C  0.64101195  0.68814736  0.94053374    -0.02800
C1304       C  0.68179247  0.68643565  0.92756463     0.04000
N1305       N  0.70093566  0.70792647  0.89856034     0.66500
H1306       H  0.73913608  0.66787848  0.93367098     0.15400
H1307       H  0.59384276  0.66990502  0.98011563     0.15100
N1308       N  0.63410741  0.62648006  0.51315569     0.74200
O1309       O  0.73583726  0.75274881  0.89672873    -0.39300
O1310       O  0.69135440  0.67966745  0.87606560    -0.39200
O1311       O  0.64398296  0.65524368  0.53542242    -0.39900
O1312       O  0.59907044  0.58176825  0.51528974    -0.40000
C1313       C  0.41777681  0.61602128  0.93530278    -0.12200
C1314       C  0.42627835  0.66065384  0.94889209     0.04800
C1315       C  0.38627296  0.66067136  0.96465177    -0.07500
C1316       C  0.34015007  0.61582094  0.96776690    -0.08300
C1317       C  0.33301311  0.57097058  0.95508452    -0.02800
C1318       C  0.37197345  0.57193888  0.93796105     0.04000
N1319       N  0.36575597  0.52828967  0.92304313     0.66500
H1320       H  0.44675019  0.61520886  0.92171147     0.15400
H1321       H  0.31937157  0.61365988  0.48406385     0.15100
N1322       N  0.40243879  0.70174084  0.48127745     0.74200
O1323       O  0.34198626  0.51526156  0.89855560    -0.39300
O1324       O  0.39447026  0.51165916  0.92964917    -0.39200
O1325       O  0.36990555  0.72633597  0.96686998    -0.39900
O1326       O  0.42701290  0.71408239  0.50548574    -0.40000
C1327       C  0.63180956  0.96589710  0.61633237    -0.12200
C1328       C  0.63782258  0.96337458  0.64758062     0.04800
C1329       C  0.66817636  0.00811346  0.66313668    -0.07500
C1330       C  0.69428998  0.05321295  0.64699460    -0.08300
C1331       C  0.68997649  0.05542757  0.61541245    -0.02800
C1332       C  0.65654050  0.01112665  0.60024952     0.04000
N1333       N  0.65078523  0.01048379  0.56830336     0.66500
H1334       H  0.60947060  0.93130459  0.60371286     0.15400
H1335       H  0.71994590  0.08674827  0.65928456     0.15100
N1336       N  0.67657179  0.00778125  0.69475698     0.74200
O1337       O  0.67754859  0.00001240  0.55162032    -0.39300
O1338       O  0.61189432  0.00831148  0.55760069    -0.39200
O1339       O  0.71543476  0.00800158  0.70379471    -0.39900
O1340       O  0.65150126  0.01802838  0.71303393    -0.40000
C1341       C  0.70040431  0.73323018  0.70190255    -0.12200
C1342       C  0.65000061  0.70547884  0.69310706     0.04800
C1343       C  0.62340731  0.65379112  0.70011849    -0.07500
C1344       C  0.64741483  0.63180978  0.71597865    -0.08300
C1345       C  0.69797558  0.66020508  0.72467568    -0.02800
C1346       C  0.72415458  0.71164311  0.71738573     0.04000
N1347       N  0.77493844  0.74334022  0.72644980     0.66500
H1348       H  0.72201690  0.77296450  0.69710687     0.15400
H1349       H  0.62669242  0.59215893  0.72093493     0.15100
N1350       N  0.57205145  0.62333557  0.69196716     0.74200
O1351       O  0.80984237  0.75597652  0.70738554    -0.39300
O1352       O  0.78370942  0.76710554  0.75087712    -0.39200
O1353       O  0.56110811  0.59582555  0.66900289    -0.39900
O1354       O  0.53825905  0.61534713  0.71102589    -0.40000
C1355       C  0.33804576  0.61887498  0.71819584    -0.12200
C1356       C  0.33531133  0.57549214  0.70603166     0.04800
C1357       C  0.37886030  0.57884061  0.69340422    -0.07500
C1358       C  0.42422250  0.62368190  0.69463707    -0.08300
C1359       C  0.42803181  0.66675946  0.70802581    -0.02800
C1360       C  0.38385637  0.66431738  0.71926876     0.04000
N1361       N  0.38524762  0.70654240  0.73331944     0.66500
H1362       H  0.30518099  0.61676128  0.72875769     0.15400
H1363       H  0.45679392  0.62452209  0.68455644     0.15100
N1364       N  0.37794340  0.53658205  0.67969283     0.74200
O1365       O  0.37338109  0.73379160  0.71841403    -0.39300
O1366       O  0.38896458  0.71094523  0.76160864    -0.39200
O1367       O  0.37056420  0.53002760  0.65168965    -0.39900
O1368       O  0.39692988  0.51440487  0.69347922    -0.40000
C1369       C  0.64189329  0.85545343  0.81724975    -0.12200
C1370       C  0.64144033  0.81077013  0.82370050     0.04800
C1371       C  0.64444834  0.78253475  0.79969078    -0.07500
C1372       C  0.64548401  0.79818647  0.76984604    -0.08300
C1373       C  0.64085124  0.84017603  0.76342688    -0.02800
C1374       C  0.64023934  0.86965909  0.78744971     0.04000
N1375       N  0.63203828  0.91059444  0.78214585     0.66500
H1376       H  0.63782542  0.87661639  0.83547315     0.15400
H1377       H  0.64426672  0.77423872  0.75158426     0.15100
N1378       N  0.64071757  0.73522775  0.80502213     0.74200
O1379       O  0.58777459  0.90291772  0.78200030    -0.39300
O1380       O  0.66805882  0.95464575  0.78487887    -0.39200
O1381       O  0.59837718  0.69608463  0.80359153    -0.39900
O1382       O  0.67977609  0.73175469  0.80373525    -0.40000
C1383       C  0.58129548  0.83137184  0.53028124    -0.12200
C1384       C  0.61929523  0.83236139  0.51228200     0.04800
C1385       C  0.65661844  0.82564758  0.52650402    -0.07500
C1386       C  0.65301446  0.81497052  0.55776825    -0.08300
C1387       C  0.61191149  0.80940218  0.57487982    -0.02800
C1388       C  0.57658715  0.81901652  0.56074024     0.04000
N1389       N  0.53459392  0.81542639  0.57682072     0.66500
H1390       H  0.55271258  0.83740733  0.52022816     0.15400
H1391       H  0.68087299  0.80835196  0.56826744     0.15100
N1392       N  0.69623008  0.82605473  0.50941046     0.74200
O1393       O  0.53576729  0.85497736  0.58504251    -0.39300
O1394       O  0.49283003  0.77564233  0.57519154    -0.39200
O1395       O  0.73802124  0.86326753  0.00888429    -0.39900
O1396       O  0.69171082  0.78525864  0.50051169    -0.40000
C1397       C  0.97707132  0.70562170  0.78044799    -0.12200
C1398       C  0.95702967  0.65562563  0.77169112     0.04800
C1399       C  0.98450265  0.63148353  0.77862632    -0.07500
C1400       C  0.02931480  0.65689619  0.79555467    -0.08300
C1401       C  0.04773339  0.70646306  0.80528230    -0.02800
C1402       C  0.02057417  0.73046930  0.79740167     0.04000
N1403       N  0.03576433  0.78007676  0.80723982     0.66500
H1404       H  0.95733585  0.72552513  0.77520504     0.15400
H1405       H  0.05057626  0.63840591  0.80023090     0.15100
N1406       N  0.96853047  0.58219448  0.76807101     0.74200
O1407       O  0.05507693  0.81568593  0.78853627    -0.39300
O1408       O  0.02072920  0.78651565  0.83246866    -0.39200
O1409       O  0.98262671  0.57672623  0.74229415    -0.39900
O1410       O  0.95222943  0.54655886  0.78669136    -0.40000
C1411       C  0.33218728  0.96656572  0.88076630    -0.12200
C1412       C  0.31784428  0.96419582  0.85040116     0.04800
C1413       C  0.32718173  0.00836083  0.83589319    -0.07500
C1414       C  0.34705953  0.05306058  0.85224707    -0.08300
C1415       C  0.35909535  0.05535479  0.88315562    -0.02800
C1416       C  0.35350676  0.01175182  0.89702672     0.04000
N1417       N  0.36542789  0.01156156  0.92807423     0.66500
H1418       H  0.32451445  0.93257715  0.89235642     0.15400
H1419       H  0.35133347  0.08593356  0.84088238     0.15100
N1420       N  0.31184197  0.00725544  0.80541547     0.74200
O1421       O  0.33142871  0.99866921  0.94779057    -0.39300
O1422       O  0.40578262  0.01291720  0.93490857    -0.39200
O1423       O  0.26803700  0.99862752  0.80009764    -0.39900
O1424       O  0.33831295  0.00562415  0.78412430    -0.40000
C1425       C  0.44150295  0.82331309  0.85868680    -0.12200
C1426       C  0.43654683  0.77792631  0.86858557     0.04800
C1427       C  0.38758621  0.73642872  0.87258800    -0.07500
C1428       C  0.34563581  0.74182417  0.86704747    -0.08300
C1429       C  0.35076396  0.78749380  0.85760600    -0.02800
C1430       C  0.39979406  0.82876482  0.85359488     0.04000
N1431       N  0.40839681  0.87700310  0.84492178     0.66500
H1432       H  0.47850549  0.85583853  0.85591400     0.15400
H1433       H  0.30851303  0.70953981  0.86986667     0.15100
N1434       N  0.37921355  0.68917632  0.88343381     0.74200
O1435       O  0.41165733  0.90737807  0.86500446    -0.39300
O1436       O  0.42276447  0.89258513  0.81839156    -0.39200
O1437       O  0.34588291  0.66604077  0.90325228    -0.39900
O1438       O  0.39574458  0.66565450  0.86854165    -0.40000
C1439       C  0.26578448  0.66470405  0.79604958    -0.12200
C1440       C  0.23053027  0.67296186  0.78095423     0.04800
C1441       C  0.19285004  0.63372226  0.76409216    -0.07500
C1442       C  0.19059908  0.58735308  0.76289833    -0.08300
C1443       C  0.22470942  0.57829282  0.77885652    -0.02800
C1444       C  0.26270256  0.61774852  0.79555513     0.04000
N1445       N  0.29507823  0.60936932  0.81452155     0.66500
H1446       H  0.29376647  0.69383315  0.81017019     0.15400
H1447       H  0.16182067  0.55819144  0.74916889     0.15100
N1448       N  0.15669431  0.64048134  0.74790265     0.74200
O1449       O  0.33999235  0.62544425  0.80663894    -0.39300
O1450       O  0.28176741  0.59495607  0.84134412    -0.39200
O1451       O  0.16347573  0.65085218  0.72013946    -0.39900
O1452       O  0.11392904  0.62553392  0.75938252    -0.40000
C1453       C  0.95077067  0.62242798  0.55303692    -0.12200
C1454       C  0.95035984  0.63136732  0.52195616     0.04800
C1455       C  0.99586710  0.66027408  0.50665557    -0.07500
C1456       C  0.04070134  0.68291183  0.52287956    -0.08300
C1457       C  0.04102033  0.67777942  0.55452909    -0.02800
C1458       C  0.99561799  0.64532455  0.56944998     0.04000
N1459       N  0.99337771  0.63995897  0.60151196     0.66500
H1460       H  0.91557125  0.60077824  0.56507166     0.15400
H1461       H  0.07520232  0.70754020  0.51089553     0.15100
N1462       N  0.99633294  0.67252323  0.47554809     0.74200
O1463       O  0.98792981  0.67059057  0.61760139    -0.39300
O1464       O  0.98610294  0.59955387  0.61305810    -0.39200
O1465       O  0.98673751  0.70632087  0.46830134    -0.39900
O1466       O  0.99624459  0.64345870  0.45556406    -0.40000
C1467       C  0.33367201  0.96890793  0.62235660    -0.12200
C1468       C  0.28566028  0.95106549  0.61029408     0.04800
C1469       C  0.26100840  0.97841339  0.61570517    -0.07500
C1470       C  0.28506069  0.02317302  0.63162629    -0.08300
C1471       C  0.33435351  0.04311483  0.64225873    -0.02800
C1472       C  0.35768271  0.01370204  0.63913869     0.04000
N1473       N  0.40356872  0.02644580  0.65418007     0.66500
H1474       H  0.35142560  0.94634384  0.62015049     0.15400
H1475       H  0.26525120  0.04367700  0.63455727     0.15100
N1476       N  0.21201571  0.96232602  0.60416318     0.74200
O1477       O  0.40667586  0.03450987  0.68219591    -0.39300
O1478       O  0.43421373  0.01593594  0.64192912    -0.39200
O1479       O  0.17505164  0.94525013  0.62204941    -0.39900
O1480       O  0.20737910  0.97449635  0.57772293    -0.40000
C1481       C  0.37883350  0.73595746  0.64476688    -0.12200
C1482       C  0.42380074  0.78139029  0.63994166     0.04800
C1483       C  0.42079992  0.82428064  0.63252660    -0.07500
C1484       C  0.37418815  0.82085365  0.62970691    -0.08300
C1485       C  0.32909123  0.77560554  0.63404599    -0.02800
C1486       C  0.33178218  0.73284790  0.64230186     0.04000
N1487       N  0.28762732  0.68682191  0.64969683     0.66500
H1488       H  0.38014478  0.70301798  0.65178535     0.15400
H1489       H  0.37376000  0.85451834  0.62335660     0.15100
N1490       N  0.46450793  0.87189598  0.62725111     0.74200
O1491       O  0.27037969  0.65147754  0.63097857    -0.39300
O1492       O  0.27309314  0.67787719  0.67681476    -0.39200
O1493       O  0.47220668  0.89066441  0.60113721    -0.39900
O1494       O  0.48534392  0.90042248  0.64935555    -0.40000
C1495       C  0.18904464  0.57739588  0.52781812    -0.12200
C1496       C  0.22901611  0.57143316  0.53773245     0.04800
C1497       C  0.26939266  0.61155678  0.55273698    -0.07500
C1498       C  0.26836255  0.65593863  0.55790788    -0.08300
C1499       C  0.22718645  0.66062602  0.54889486    -0.02800
C1500       C  0.18781806  0.62111014  0.53317876     0.04000
N1501       N  0.13423535  0.61686161  0.02800842     0.66500
H1502       H  0.14641175  0.54011246  0.02107284     0.15400
H1503       H  0.29840319  0.68562557  0.57069040     0.15100
N1504       N  0.30975147  0.60672542  0.56466831     0.74200
O1505       O  0.13102375  0.63067279  0.00174697    -0.39300
O1506       O  0.09537306  0.59504928  0.04431059    -0.39200
O1507       O  0.35315983  0.63238445  0.55355735    -0.39900
O1508       O  0.30425301  0.58531310  0.58978551    -0.40000
C1509       C  0.23505910  0.81709245  0.93638807    -0.12200
C1510       C  0.18974560  0.80893858  0.92405123     0.04800
C1511       C  0.15597095  0.81469298  0.94299555    -0.07500
C1512       C  0.16608011  0.82376380  0.97416185    -0.08300
C1513       C  0.21012339  0.82833867  0.98676394    -0.02800
C1514       C  0.24574342  0.82714274  0.96698770     0.04000
N1515       N  0.29326620  0.83596242  0.97750994     0.66500
H1516       H  0.26280114  0.81531639  0.92204679     0.15400
H1517       H  0.13817020  0.82466676  0.98874615     0.15100
N1518       N  0.11015970  0.80862023  0.93141717     0.74200
O1519       O  0.30006287  0.79939341  0.98162078    -0.39300
O1520       O  0.33283639  0.88488797  0.47697434    -0.39200
O1521       O  0.07184376  0.76569210  0.93068692    -0.39900
O1522       O  0.10569214  0.84652839  0.92707688    -0.40000
C1523       C  0.13841215  0.79132726  0.73034871    -0.12200
C1524       C  0.18072115  0.83820347  0.73589347     0.04800
C1525       C  0.20451300  0.87058111  0.71125838    -0.07500
C1526       C  0.18826251  0.85407850  0.68168845    -0.08300
C1527       C  0.14954212  0.80504660  0.67602992    -0.02800
C1528       C  0.12320286  0.77425828  0.70081912     0.04000
N1529       N  0.08403780  0.72392638  0.69641934     0.66500
H1530       H  0.12021135  0.76553623  0.74896301     0.15400
H1531       H  0.20966553  0.87800095  0.66295335     0.15100
N1532       N  0.24835057  0.91813930  0.71558805     0.74200
O1533       O  0.09450259  0.68935437  0.69608428    -0.39300
O1534       O  0.03907681  0.71310382  0.70014638    -0.39200
O1535       O  0.29100667  0.92266171  0.71156082    -0.39900
O1536       O  0.24432891  0.95676431  0.71656229    -0.40000
loop_ 
_geom_bond_atom_site_label_1 
_geom_bond_atom_site_label_2 
_geom_bond_distance 
_geom_bond_site_symmetry_2 
_ccdc_geom_bond_type 
O1          Cr19   2.039       .  S
O1            C9   1.274       .  A
O2          Cr19   1.951       .  S
O2            C3   1.251       .  A
C3            O4   1.271       .  A
C3          C689   1.491       .  S
O4          Cr20   2.043       .  S
O5          Cr20   1.950       .  S
O5            C6   1.256       .  A
C6            O7   1.272       .  A
C6          C731   1.473       .  S
O7          Cr21   2.034       .  S
O8          Cr21   1.960       .  S
O8            C9   1.258       .  A
C9         C1513   1.498   1_554  S
O10         Cr19   1.950       .  S
O10          C18   1.252       .  A
O11         Cr19   2.041       .  S
O11          C12   1.277       .  A
C12          O13   1.259       .  A
C12         C759   1.485       .  S
O13         Cr20   1.960       .  S
O14         Cr20   2.060       .  S
O14          C15   1.271       .  A
C15          O16   1.251       .  A
C15         C717   1.496       .  S
O16         Cr21   1.950       .  S
O17         Cr21   2.025       .  S
O17          C18   1.267       .  A
C18         C700   1.483       .  S
Cr19         O22   1.765       .  S
Cr20         O22   1.781       .  S
Cr21         O22   1.762       .  S
O23         Cr41   2.041       .  S
O23          C31   1.274       .  A
O24         Cr41   1.941       .  S
O24          C25   1.252       .  A
C25          O26   1.275       .  A
C25         C633   1.495       .  S
O26         Cr42   2.050       .  S
O27         Cr42   1.963       .  S
O27          C28   1.253       .  A
C28          O29   1.272       .  A
C28         C672   1.482       .  S
O29         Cr43   2.049       .  S
O30         Cr43   1.966       .  S
O30          C31   1.259       .  A
C31         C756   1.485       .  S
O32         Cr41   1.950       .  S
O32          C40   1.250       .  A
O33         Cr41   2.035       .  S
O33          C34   1.270       .  A
C34          O35   1.258       .  A
C34         C742   1.495       .  S
O35         Cr42   1.966       .  S
O36         Cr42   2.048       .  S
O36          C37   1.277       .  A
C37          O38   1.256       .  A
C37         C661   1.492       .  S
O38         Cr43   1.953       .  S
O39         Cr43   2.048       .  S
O39          C40   1.275       .  A
C40         C644   1.488       .  S
Cr41         O44   1.768       .  S
Cr42         O44   1.765       .  S
Cr43         O44   1.772       .  S
O45         Cr63   2.024       .  S
O45          C53   1.269       .  A
O46         Cr63   1.962       .  S
O46          C47   1.253       .  A
C47          O48   1.275       .  A
C47         C560   1.494       .  S
O48         Cr64   2.059       .  S
O49         Cr64   1.959       .  S
O49          C50   1.259       .  A
C50          O51   1.278       .  A
C50         C714   1.491       .  S
O51         Cr65   2.055       .  S
O52         Cr65   1.956       .  S
O52          C53   1.258       .  A
C53         C619   1.486       .  S
O54         Cr63   1.954       .  S
O54          C62   1.255       .  A
O55         Cr63   2.030       .  S
O55          C56   1.272       .  A
C56          O57   1.260       .  A
C56         C605   1.477       .  S
O57         Cr64   1.966       .  S
O58         Cr64   2.064       .  S
O58          C59   1.272       .  A
C59          O60   1.251       .  A
C59         C591   1.497       .  S
O60         Cr65   1.950       .  S
O61         Cr65   2.048       .  S
O61          C62   1.272       .  A
C62         C574   1.502       .  S
Cr63         O66   1.767       .  S
Cr64         O66   1.778       .  S
Cr65         O66   1.766       .  S
O67         Cr85   2.031       .  S
O67          C75   1.270       .  A
O68         Cr85   1.956       .  S
O68          C69   1.250       .  A
C69          O70   1.268       .  A
C69         C535   1.473       .  S
O70         Cr86   2.033       .  S
O71         Cr86   1.956       .  S
O71          C72   1.259       .  A
C72          O73   1.274       .  A
C72         C546   1.484       .  S
O73         Cr87   2.044       .  S
O74         Cr87   1.953       .  S
O74          C75   1.259       .  A
C75        C1384   1.492       .  S
O76         Cr85   1.945       .  S
O76          C84   1.254       .  A
O77         Cr85   2.035       .  S
O77          C78   1.274       .  A
C78          O79   1.259       .  A
C78         C602   1.477       .  S
O79         Cr86   1.959       .  S
O80         Cr86   2.041       .  S
O80          C81   1.268       .  A
C81          O82   1.254       .  A
C81         C658   1.486       .  S
O82         Cr87   1.955       .  S
O83         Cr87   2.037       .  S
O83          C84   1.270       .  A
C84         C518   1.497       .  S
Cr85         O88   1.770       .  S
Cr86         O88   1.773       .  S
Cr87         O88   1.770       .  S
O89        Cr875   2.023       .  S
O89          C97   1.270       .  A
O90        Cr875   1.954       .  S
O90          C91   1.248       .  A
C91         O860   1.269       .  A
C91         C504   1.478       .  S
O92        Cr108   2.034       .  S
O92         C859   1.267   1_554  A
O93        Cr876   1.961       .  S
O93          C94   1.261       .  A
C94          O95   1.277       .  A
C94         C549   1.476       .  S
O95        Cr109   2.048       .  S
O96        Cr109   1.954       .  S
O96          C97   1.257       .  A
C97         C462   1.483       .  S
O98        Cr107   1.941   1_554  S
O98         C106   1.249       .  A
O99        Cr107   2.044   1_554  S
O99         C100   1.277       .  A
C100        O101   1.258       .  A
C100        C476   1.493       .  S
O101       Cr108   1.960       .  S
O102       Cr108   2.028       .  S
O102        C103   1.265       .  A
C103        O104   1.253       .  A
C103        C728   1.479       .  S
O104       Cr877   1.950   1_554  S
O105       Cr109   2.048       .  S
O105        C874   1.273       .  A
C106        O873   1.271   1_554  A
C106        C490   1.501       .  S
Cr107       O857   2.029       .  S
Cr107       O858   1.956       .  S
Cr107       O110   1.770       .  S
Cr108       O861   1.962   1_554  S
Cr108       O110   1.778   1_554  S
Cr109       O872   1.951       .  S
Cr109       O878   1.765       .  S
O110       Cr877   1.767       .  S
O111       Cr129   2.028       .  S
O111        C119   1.270       .  A
O112       Cr129   1.943       .  S
O112        C113   1.249       .  A
C113        O114   1.270       .  A
C113        C448   1.476       .  S
O114       Cr130   2.039       .  S
O115       Cr130   1.960       .  S
O115        C116   1.259       .  A
C116        O117   1.276       .  A
C116        C588   1.486       .  S
O117       Cr131   2.054       .  S
O118       Cr131   1.966       .  S
O118        C119   1.261       .  A
C119        C479   1.493       .  S
O120       Cr129   1.950       .  S
O120        C128   1.253       .  A
O121       Cr129   2.031       .  S
O121        C122   1.271       .  A
C122        O123   1.259       .  A
C122        C465   1.478       .  S
O123       Cr130   1.954       .  S
O124       Cr130   2.048       .  S
O124        C125   1.271       .  A
C125        O126   1.254       .  A
C125        C675   1.491       .  S
O126       Cr131   1.960       .  S
O127       Cr131   2.048       .  S
O127        C128   1.274       .  A
C128        C437   1.507       .  S
Cr129       O132   1.777       .  S
Cr130       O132   1.777       .  S
Cr131       O132   1.771       .  S
O133       Cr151   2.035       .  S
O133        C141   1.272       .  A
O134       Cr151   1.943       .  S
O134        C135   1.251       .  A
C135        O136   1.269       .  A
C135        C703   1.497       .  S
O136       Cr152   2.048       .  S
O137       Cr152   1.957       .  S
O137        C138   1.259       .  A
C138        O139   1.273       .  A
C138        C378   1.480       .  S
O139       Cr153   2.038       .  S
O140       Cr153   1.956       .  S
O140        C141   1.261       .  A
C141        C420   1.494       .  S
O142       Cr151   1.941       .  S
O142        C150   1.251       .  A
O143       Cr151   2.033       .  S
O143        C144   1.273       .  A
C144        O145   1.259       .  A
C144        C406   1.484       .  S
O145       Cr152   1.949       .  S
O146       Cr152   2.050       .  S
O146        C147   1.270       .  A
C147        O148   1.255       .  A
C147        C392   1.493       .  S
O148       Cr153   1.954       .  S
O149       Cr153   2.035       .  S
O149        C150   1.268       .  A
C150        C451   1.498       .  S
Cr151       O154   1.767       .  S
Cr152       O154   1.777       .  S
Cr153       O154   1.772       .  S
O155       Cr173   2.037       .  S
O155        C163   1.275       .  A
O156       Cr173   1.939       .  S
O156        C157   1.252       .  A
C157        O158   1.275       .  A
C157        C507   1.502       .  S
O158       Cr174   2.052       .  S
O159       Cr174   1.950       .  S
O159        C160   1.254       .  A
C160        O161   1.273       .  A
C160        C364   1.478       .  S
O161       Cr175   2.042       .  S
O162       Cr175   1.951       .  S
O162        C163   1.256       .  A
C163       C1191   1.488       .  S
O164       Cr173   1.968       .  S
O164        C172   1.252       .  A
O165       Cr173   2.021       .  S
O165        C166   1.269       .  A
C166        O167   1.256       .  A
C166        C409   1.474       .  S
O167       Cr174   1.949       .  S
O168       Cr174   2.059       .  S
O168        C169   1.274       .  A
C169        O170   1.255       .  A
C169        C350   1.491       .  S
O170       Cr175   1.951       .  S
O171       Cr175   2.045       .  S
O171        C172   1.271       .  A
C172        C647   1.495       .  S
Cr173       O176   1.770       .  S
Cr174       O176   1.774       .  S
Cr175       O176   1.765       .  S
O177       Cr195   2.028       .  S
O177        C185   1.272       .  A
O178       Cr195   1.949       .  S
O178        C179   1.253       .  A
C179        O180   1.269       .  A
C179        C493   1.486       .  S
O180       Cr196   2.037       .  S
O181       Cr196   1.949       .  S
O181        C182   1.253       .  A
C182        O183   1.273       .  A
C182        C308   1.493       .  S
O183       Cr197   2.056       .  S
O184       Cr197   1.957       .  S
O184        C185   1.259       .  A
C185       C1090   1.477   1_554  S
O186       Cr195   1.963       .  S
O186        C194   1.253       .  A
O187       Cr195   2.017       .  S
O187        C188   1.269       .  A
C188        O189   1.257       .  A
C188        C336   1.475       .  S
O189       Cr196   1.953       .  S
O190       Cr196   2.045       .  S
O190        C191   1.271       .  A
C191        O192   1.258       .  A
C191        C381   1.488       .  S
O192       Cr197   1.953       .  S
O193       Cr197   2.055       .  S
O193        C194   1.274       .  A
C194        C563   1.503       .  S
Cr195       O198   1.767       .  S
Cr196       O198   1.770       .  S
Cr197       O198   1.768       .  S
O199       Cr217   2.017       .  S
O199        C207   1.268       .  A
O200       Cr217   1.953       .  S
O200        C201   1.249       .  A
C201        O202   1.273       .  A
C201        C434   1.484       .  S
O202       Cr218   2.050       .  S
O203       Cr218   1.965       .  S
O203        C204   1.263       .  A
C204        O205   1.274       .  A
C204        C294   1.488       .  S
O205       Cr219   2.038       .  S
O206       Cr219   1.950       .  S
O206        C207   1.258       .  A
C207        C339   1.478       .  S
O208       Cr217   1.942       .  S
O208        C216   1.251       .  A
O209       Cr217   2.025       .  S
O209        C210   1.270       .  A
C210        O211   1.258       .  A
C210        C325   1.476       .  S
O211       Cr218   1.965       .  S
O212       Cr218   2.034       .  S
O212        C213   1.267       .  A
C213        O214   1.254       .  A
C213        C353   1.478       .  S
O214       Cr219   1.963       .  S
O215       Cr219   2.038       .  S
O215        C216   1.269       .  A
C216        C521   1.486       .  S
Cr217       O220   1.773       .  S
Cr218       O220   1.776       .  S
Cr219       O220   1.767       .  S
O221       Cr239   2.032       .  S
O221        C229   1.274       .  A
O222       Cr239   1.941       .  S
O222        C223   1.253       .  A
C223        O992   1.273       .  A
C223        C532   1.493       .  S
O224       Cr240   2.047       .  S
O224        C991   1.273   1_554  A
O225      Cr1008   1.950       .  S
O225        C226   1.254       .  A
C226        O227   1.265       .  A
C226        C367   1.481       .  S
O227       Cr241   2.028       .  S
O228       Cr241   1.951       .  S
O228        C229   1.257       .  A
C229        C266   1.485       .  S
O230      Cr1007   1.958       .  S
O230        C238   1.250       .  A
O231      Cr1007   2.028       .  S
O231        C232   1.270       .  A
C232        O233   1.260       .  A
C232        C280   1.486       .  S
O233       Cr240   1.951       .  S
O234       Cr240   2.057       .  S
O234        C235   1.277       .  A
C235        O236   1.258       .  A
C235        C311   1.486       .  S
O236      Cr1009   1.953   1_554  S
O237       Cr241   2.023       .  S
O237       C1006   1.266       .  A
C238       O1005   1.266   1_554  A
C238        C686   1.474       .  S
Cr239       O998   1.955       .  S
Cr239       O999   2.021       .  S
Cr239       O242   1.770       .  S
Cr240       O993   1.944   1_554  S
Cr240      O1010   1.759       .  S
Cr241      O1004   1.950       .  S
Cr241       O242   1.775       .  S
O242      Cr1008   1.758       .  S
O243       Cr261   2.034       .  S
O243        C251   1.272       .  A
O244       Cr261   1.954       .  S
O244        C245   1.252       .  A
C245        O246   1.272       .  A
C245        C577   1.498       .  S
O246       Cr262   2.045       .  S
O247       Cr262   1.952       .  S
O247        C248   1.253       .  A
C248        O249   1.273       .  A
C248        C395   1.494       .  S
O249       Cr263   2.053       .  S
O250       Cr263   1.965       .  S
O250        C251   1.261       .  A
C251        C283   1.491       .  S
O252       Cr261   1.948       .  S
O252        C260   1.252       .  A
O253       Cr261   2.034       .  S
O253        C254   1.271       .  A
C254        O255   1.258       .  A
C254        C269   1.489       .  S
O255       Cr262   1.947       .  S
O256       Cr262   2.045       .  S
O256        C257   1.275       .  A
C257        O258   1.259       .  A
C257        C297   1.478       .  S
O258       Cr263   1.967       .  S
O259       Cr263   2.056       .  S
O259        C260   1.271       .  A
C260        C630   1.500       .  S
Cr261       O264   1.771       .  S
Cr262       O264   1.769       .  S
Cr263       O264   1.781       .  S
C265        C266   1.404       .  A
C265        C270   1.413       .  A
C265        H272   1.085       .  S
C266        C267   1.416       .  A
C267        C268   1.392       .  A
C267        N274   1.430       .  S
C268        C269   1.400       .  A
C268        H273   1.086       .  S
C269        C270   1.415       .  A
C270        N271   1.425       .  S
N271        O275   1.262       .  A
N271        O276   1.260       .  A
N274        O278   1.262       .  A
N274        O277   1.261       .  A
C279        C280   1.394       .  A
C279        C284   1.388       .  A
C279        H286   1.085       .  S
C280        C281   1.416       .  A
C281        C282   1.420       .  A
C281        N288   1.428       .  S
C282        C283   1.410       .  A
C282        H287   1.083       .  S
C283        C284   1.412       .  A
C284        N285   1.424       .  S
N285        O289   1.260       .  A
N285        O290   1.262       .  A
N288        O292   1.261       .  A
N288        O291   1.262       .  A
C293        C294   1.409       .  A
C293        C298   1.401       .  A
C293        H300   1.085       .  S
C294        C295   1.413       .  A
C295        C296   1.404       .  A
C295        N302   1.428       .  S
C296        C297   1.403       .  A
C296        H301   1.085       .  S
C297        C298   1.407       .  A
C298        N299   1.429       .  S
N299        O303   1.260       .  A
N299        O304   1.262       .  A
N302        O306   1.262       .  A
N302        O305   1.262       .  A
C307        C308   1.408       .  A
C307        C312   1.394       .  A
C307        H314   1.083       .  S
C308        C309   1.415       .  A
C309        C310   1.412       .  A
C309        N316   1.430       .  S
C310        C311   1.410       .  A
C310        H315   1.084       .  S
C311        C312   1.409       .  A
C312        N313   1.430       .  S
N313        O317   1.262       .  A
N313        O318   1.262       .  A
N316       O1088   1.262   1_554  A
N316        O319   1.262       .  A
O320       N1084   1.262       .  A
C321        C322   1.396       .  A
C321        C326   1.399       .  A
C321        H328   1.086       .  S
C322        C953   1.476       .  S
C322        C323   1.413       .  A
C323        C324   1.404       .  A
C323        N330   1.422       .  S
C324        C325   1.396       .  A
C324        H329   1.085       .  S
C325        C326   1.413       .  A
C326        N327   1.425       .  S
N327        O331   1.261       .  A
N327        O332   1.261       .  A
N330        O334   1.260       .  A
N330       O1101   1.261       .  A
O333       N1098   1.261       .  A
C335        C336   1.403       .  A
C335        C340   1.407       .  A
C335        H342   1.085       .  S
C336        C337   1.414       .  A
C337        C338   1.391       .  A
C337        N344   1.431       .  S
C338        C339   1.400       .  A
C338        H343   1.086       .  S
C339        C340   1.414       .  A
C340        N341   1.428       .  S
N341        O345   1.262       .  A
N341        O346   1.262       .  A
N344        O348   1.262       .  A
N344        O347   1.262       .  A
C349        C350   1.410       .  A
C349        C354   1.393       .  A
C349        H356   1.085       .  S
C350        C351   1.413       .  A
C351        C352   1.408       .  A
C351        N358   1.428       .  S
C352        C353   1.409       .  A
C352        H357   1.085       .  S
C353        C354   1.404       .  A
C354        N355   1.429       .  S
N355        O359   1.262       .  A
N355        O360   1.262       .  A
N358        O362   1.262       .  A
N358        O361   1.262       .  A
C363        C364   1.407       .  A
C363        C368   1.404       .  A
C363        H370   1.085       .  S
C364        C365   1.413       .  A
C365        C366   1.389       .  A
C365        N372   1.429       .  S
C366        C367   1.402       .  A
C366        H371   1.085       .  S
C367        C368   1.413       .  A
C368        N369   1.429       .  S
N369        O373   1.261       .  A
N369        O374   1.262       .  A
N372        O376   1.261       .  A
N372        O375   1.263       .  A
C377        C378   1.408       .  A
C377        C382   1.407       .  A
C377        H384   1.085       .  S
C378        C379   1.407       .  A
C379        C380   1.392       .  A
C379        N386   1.428       .  S
C380        C381   1.407       .  A
C380        H385   1.085       .  S
C381        C382   1.416       .  A
C382        N383   1.429       .  S
N383        O387   1.261       .  A
N383        O388   1.261       .  A
N386        O390   1.260       .  A
N386        O389   1.262       .  A
C391        C392   1.403       .  A
C391        C396   1.392       .  A
C391        H398   1.085       .  S
C392        C393   1.415       .  A
C393        C394   1.412       .  A
C393        N400   1.429       .  S
C394        C395   1.410       .  A
C394        H399   1.085       .  S
C395        C396   1.417       .  A
C396        N397   1.430       .  S
N397        O401   1.262       .  A
N397        O402   1.262       .  A
N400        O404   1.262       .  A
N400        O403   1.261       .  A
C405        C406   1.413       .  A
C405        C410   1.413       .  A
C405        H412   1.083       .  S
C406        C407   1.412       .  A
C407        C408   1.390       .  A
C407        N414   1.430       .  S
C408        C409   1.399       .  A
C408        H413   1.085       .  S
C409        C410   1.406       .  A
C410        N411   1.428       .  S
N411        O415   1.262       .  A
N411        O416   1.262       .  A
N414        O418   1.261       .  A
N414        O417   1.262       .  A
C419        C420   1.398       .  A
C419        C424   1.392       .  A
C419        H426   1.086       .  S
C420        C421   1.418       .  A
C421        C422   1.415       .  A
C421        N428   1.422       .  S
C422        C423   1.401       .  A
C422        H427   1.085       .  S
C423        C931   1.489   1_554  S
C423        C424   1.415       .  A
C424        N425   1.426   1_554  S
N425        O429   1.259       .  A
N425       O1198   1.262   1_556  A
N428        O432   1.260       .  A
N428        O431   1.262       .  A
O430       N1193   1.262       .  A
C433        C434   1.409       .  A
C433        C438   1.414   1_655  A
C433        H440   1.085       .  S
C434        C435   1.405       .  A
C435        C436   1.400   1_655  A
C435        N442   1.429       .  S
C436        C437   1.414       .  A
C436        H441   1.085       .  S
C437        C438   1.415       .  A
C438        N439   1.427       .  S
N439        O443   1.262   1_455  A
N439        O444   1.262       .  A
N442        O446   1.262   1_655  A
N442        O445   1.262       .  A
C447        C448   1.403       .  A
C447        C452   1.411       .  A
C447        H454   1.102       .  S
C448        C449   1.405       .  A
C449        C450   1.390       .  A
C449        N456   1.430       .  S
C450        C451   1.410       .  A
C450        H455   1.088       .  S
C451        C452   1.418       .  A
C452        N453   1.428       .  S
N453        O457   1.262       .  A
N453        O458   1.262       .  A
N456        O460   1.261       .  A
N456        O459   1.262       .  A
C461        C462   1.410       .  A
C461        C466   1.411       .  A
C461        H468   1.085       .  S
C462        C463   1.412       .  A
C463        C464   1.392       .  A
C463        N470   1.430       .  S
C464        C465   1.400       .  A
C464        H469   1.086       .  S
C465        C466   1.410       .  A
C466        N467   1.428       .  S
N467        O471   1.261       .  A
N467        O472   1.262       .  A
N470        O474   1.261       .  A
N470        O473   1.262       .  A
C475        C476   1.405       .  A
C475        C480   1.418       .  A
C475        H482   1.084       .  S
C476        C477   1.417       .  A
C477        C478   1.394       .  A
C477        N484   1.427       .  S
C478        C479   1.396       .  A
C478        H483   1.086       .  S
C479        C480   1.419       .  A
C480        N481   1.427       .  S
N481        O485   1.262       .  A
N481        O486   1.262       .  A
N484        O488   1.261       .  A
N484        O487   1.260       .  A
C489        C490   1.409       .  A
C489        C494   1.415   1_455  A
C489        H496   1.084       .  S
C490        C491   1.423       .  A
C491        C492   1.394   1_455  A
C491        N498   1.431       .  S
C492        C493   1.398       .  A
C492        H497   1.086       .  S
C493        C494   1.415       .  A
C494        N495   1.428       .  S
N495        O499   1.262       .  A
N495        O500   1.262       .  A
N498        O502   1.262       .  A
N498        O501   1.262       .  A
C503        C504   1.406       .  A
C503        C508   1.412       .  A
C503        H510   1.090       .  S
C504        C505   1.402       .  A
C505        C506   1.395       .  A
C505       N1280   1.429       .  S
C506        C507   1.415       .  A
C506        H511   1.086       .  S
C507        C508   1.414       .  A
C508        N509   1.428       .  S
N509        O513   1.261       .  A
N509        O514   1.261       .  A
N512       C1273   1.429   1_554  S
N512        O516   1.262       .  A
N512        O515   1.262       .  A
C517        C518   1.406       .  A
C517        C522   1.389   1_565  A
C517        H524   1.085       .  S
C518        C519   1.418       .  A
C519        C520   1.416   1_565  A
C519        N526   1.427       .  S
C520        C521   1.408       .  A
C520        H525   1.084       .  S
C521        C522   1.411       .  A
C522        N523   1.431       .  S
N523        O527   1.262       .  A
N523        O528   1.262       .  A
N526        O530   1.261       .  A
N526        O529   1.262       .  A
C531        C532   1.412       .  A
C531        C536   1.396       .  A
C531        H538   1.085       .  S
C532        C533   1.412       .  A
C533        C534   1.409       .  A
C533       N1308   1.427       .  S
C534        C535   1.407       .  A
C534        H539   1.085       .  S
C535        C536   1.403       .  A
C536        N537   1.429       .  S
N537        O541   1.262       .  A
N537        O542   1.262       .  A
N540       C1301   1.427   1_554  S
N540        O544   1.262       .  A
N540        O543   1.262       .  A
C545        C546   1.406       .  A
C545        C550   1.395       .  A
C545        H552   1.085       .  S
C546        C547   1.412       .  A
C547        C548   1.407       .  A
C547       N1322   1.429       .  S
C548        C549   1.408       .  A
C548       H1321   1.085       .  S
C549        C550   1.406       .  A
C550        N551   1.429       .  S
N551        O555   1.262       .  A
N551        O556   1.261       .  A
H553       C1316   1.085       .  S
N554       C1315   1.429       .  S
N554        O558   1.262   1_556  A
N554       O1325   1.262       .  A
O557       N1322   1.262       .  A
C559        C560   1.408       .  A
C559        C564   1.408   1_565  A
C559        H566   1.095       .  S
C560        C561   1.408   1_565  A
C561        C562   1.408       .  A
C561        N568   1.428       .  S
C562        C563   1.414       .  A
C562        H567   1.088       .  S
C563        C564   1.411       .  A
C564        N565   1.428       .  S
N565        O569   1.262   1_545  A
N565        O570   1.262       .  A
N568        O572   1.262       .  A
N568        O571   1.262       .  A
C573        C574   1.405       .  A
C573        C578   1.395       .  A
C573        H580   1.085       .  S
C574        C575   1.417       .  A
C575        C576   1.419       .  A
C575        N582   1.428       .  S
C576        C577   1.410       .  A
C576        H581   1.084       .  S
C577        C578   1.414       .  A
C578        N579   1.430       .  S
N579        O583   1.262       .  A
N579        O584   1.262       .  A
N582        O586   1.262       .  A
N582        O585   1.262       .  A
C587        C588   1.411       .  A
C587        C592   1.413       .  A
C587        H594   1.085       .  S
C588        C589   1.407       .  A
C589        C590   1.394       .  A
C589        N596   1.428       .  S
C590        C591   1.409       .  A
C590        H595   1.084       .  S
C591        C592   1.414       .  A
C592        N593   1.428       .  S
N593        O597   1.261       .  A
N593        O598   1.262       .  A
N596        O600   1.261       .  A
N596        O599   1.262       .  A
C601        C602   1.405       .  A
C601        C606   1.404       .  A
C601        H608   1.085       .  S
C602        C603   1.409       .  A
C603        C604   1.404       .  A
C603        N610   1.429       .  S
C604        C605   1.405       .  A
C604        H609   1.086       .  S
C605        C606   1.408       .  A
C606        N607   1.428       .  S
N607        O611   1.262       .  A
N607        O612   1.262       .  A
N610        O614   1.262       .  A
N610        O613   1.262       .  A
C615        C616   1.400       .  A
C615        C620   1.387       .  A
C615        H622   1.086       .  S
C616        C843   1.489   1_554  S
C616        C617   1.418       .  A
C617        C618   1.415       .  A
C617        N624   1.428       .  S
C618        C619   1.407       .  A
C618        H623   1.084       .  S
C619        C620   1.411       .  A
C620        N621   1.427       .  S
N621        O625   1.259       .  A
N621        O626   1.262       .  A
N624        O628   1.262   1_554  A
N624       O1395   1.262       .  A
O627       N1392   1.262       .  A
C629        C630   1.403       .  A
C629        C634   1.391   1_655  A
C629        H636   1.086       .  S
C630        C631   1.418       .  A
C631        C632   1.421   1_655  A
C631        N638   1.428       .  S
C632        C633   1.411       .  A
C632        H637   1.084       .  S
C633        C634   1.414       .  A
C634        N635   1.431       .  S
N635        O639   1.262       .  A
N635        O640   1.262       .  A
N638        O642   1.261       .  A
N638        O641   1.262       .  A
C643        C644   1.411       .  A
C643        C648   1.407   1_565  A
C643        H650   1.084       .  S
C644        C645   1.404   1_565  A
C645        C646   1.409       .  A
C645        N652   1.429       .  S
C646        C647   1.414       .  A
C646        H651   1.081       .  S
C647        C648   1.409       .  A
C648        N649   1.428       .  S
N649        O653   1.262   1_545  A
N649        O654   1.262   1_545  A
N652        O656   1.262   1_545  A
N652        O655   1.262       .  A
C657        C658   1.402       .  A
C657        C662   1.396       .  A
C657        H664   1.085       .  S
C658        C659   1.418       .  A
C659        C660   1.407       .  A
C659        N666   1.432       .  S
C660        C661   1.404       .  A
C660        H665   1.085       .  S
C661        C662   1.419       .  A
C662        N663   1.430       .  S
N663        O667   1.262       .  A
N663        O668   1.262       .  A
N666        O670   1.262       .  A
N666        O669   1.262       .  A
C671        C672   1.407       .  A
C671        C676   1.408       .  A
C671        H678   1.085       .  S
C672        C673   1.407       .  A
C673        C674   1.400       .  A
C673        N680   1.429       .  S
C674        C675   1.409       .  A
C674        H679   1.085       .  S
C675        C676   1.411       .  A
C676        N677   1.428       .  S
N677        O681   1.261       .  A
N677        O682   1.262       .  A
N680        O684   1.262       .  A
N680        O683   1.262       .  A
C685        C686   1.407       .  A
C685        C690   1.406       .  A
C685        H692   1.084       .  S
C686        C687   1.400       .  A
C687        C688   1.401   1_655  A
C687        N694   1.429   1_554  S
C688        C689   1.414       .  A
C688        H693   1.084       .  S
C689        C690   1.410   1_455  A
C690        N691   1.428       .  S
N691        O695   1.262       .  A
N691        O696   1.262       .  A
N694        O698   1.262       .  A
N694        O697   1.262       .  A
C699        C700   1.408       .  A
C699        C704   1.416   1_565  A
C699        H706   1.085       .  S
C700        C701   1.408       .  A
C701        C702   1.391   1_565  A
C701        N708   1.431       .  S
C702        C703   1.406       .  A
C702        H707   1.085       .  S
C703        C704   1.417       .  A
C704        N705   1.430       .  S
N705        O709   1.262       .  A
N705        O710   1.262       .  A
N708        O712   1.262       .  A
N708        O711   1.262       .  A
C713        C714   1.411       .  A
C713        C718   1.411       .  A
C713        H720   1.085       .  S
C714        C715   1.414       .  A
C715        C716   1.394       .  A
C715        N722   1.432       .  S
C716        C717   1.407       .  A
C716        H721   1.085       .  S
C717        C718   1.414       .  A
C718        N719   1.428       .  S
N719        O723   1.261       .  A
N719        O724   1.262       .  A
N722        O726   1.262       .  A
N722        O725   1.262       .  A
C727        C728   1.405       .  A
C727        C732   1.391       .  A
C727       H1502   1.085       .  S
C728        C729   1.412       .  A
C729        C730   1.403       .  A
C729        N736   1.429       .  S
C730        C731   1.406       .  A
C730        H735   1.085       .  S
C731        C732   1.409       .  A
C732       N1501   1.430       .  S
N733       C1500   1.430       .  S
N733        O737   1.262       .  A
N733        O738   1.262       .  A
H734       C1495   1.085       .  S
N736        O740   1.262       .  A
N736        O739   1.261       .  A
C741        C742   1.404       .  A
C741        C746   1.399       .  A
C741        H748   1.086       .  S
C742        C743   1.412       .  A
C743        C744   1.414       .  A
C743        N750   1.426       .  S
C744        C745   1.411       .  A
C744        H749   1.085       .  S
C745        C777   1.499       .  S
C745        C746   1.416       .  A
C746        N747   1.430       .  S
N747        O751   1.262       .  A
N747       O1520   1.262       .  A
N750        O754   1.262       .  A
N750        O753   1.261       .  A
O752       N1515   1.262       .  A
C755        C756   1.405       .  A
C755        C760   1.404       .  A
C755        H762   1.086       .  S
C756        C757   1.411       .  A
C757        C758   1.410       .  A
C757        N764   1.428       .  S
C758        C759   1.407       .  A
C758        H763   1.085       .  S
C759        C760   1.410       .  A
C760        N761   1.429       .  S
N761        O765   1.262       .  A
N761        O766   1.262       .  A
N764        O768   1.262       .  A
N764        O767   1.262       .  A
O769       Cr787   2.035       .  S
O769        C777   1.274       .  A
O770       Cr787   1.950       .  S
O770        C771   1.250       .  A
C771        O772   1.270       .  A
C771       C1457   1.487       .  S
O772       Cr788   2.040       .  S
O773       Cr788   1.958       .  S
O773        C774   1.260       .  A
C774        O775   1.274       .  A
C774       C1499   1.476       .  S
O775       Cr789   2.039       .  S
O776       Cr789   1.964       .  S
O776        C777   1.259       .  A
O778       Cr787   1.950       .  S
O778        C786   1.251       .  A
O779       Cr787   2.040       .  S
O779        C780   1.277       .  A
C780        O781   1.260       .  A
C780       C1527   1.485       .  S
O781       Cr788   1.963       .  S
O782       Cr788   2.050       .  S
O782        C783   1.268       .  A
C783        O784   1.252       .  A
C783       C1485   1.491       .  S
O784       Cr789   1.954       .  S
O785       Cr789   2.027       .  S
O785        C786   1.268       .  A
C786       C1468   1.487       .  S
Cr787       O790   1.767       .  S
Cr788       O790   1.784       .  S
Cr789       O790   1.762       .  S
O791       Cr809   2.042       .  S
O791        C799   1.276       .  A
O792       Cr809   1.944       .  S
O792        C793   1.253       .  A
C793        O794   1.273       .  A
C793       C1401   1.495       .  S
O794       Cr810   2.043       .  S
O795       Cr810   1.966       .  S
O795        C796   1.253       .  A
C796        O797   1.271       .  A
C796       C1440   1.482       .  S
O797       Cr811   2.046       .  S
O798       Cr811   1.961       .  S
O798        C799   1.259       .  A
C799       C1524   1.484       .  S
O800       Cr809   1.961       .  S
O800        C808   1.250       .  A
O801       Cr809   2.034       .  S
O801        C802   1.270       .  A
C802        O803   1.258       .  A
C802       C1510   1.494       .  S
O803       Cr810   1.963       .  S
O804       Cr810   2.046       .  S
O804        C805   1.278       .  A
C805        O806   1.257       .  A
C805       C1429   1.491       .  S
O806       Cr811   1.953       .  S
O807       Cr811   2.042       .  S
O807        C808   1.272       .  A
C808       C1412   1.484       .  S
Cr809       O812   1.770       .  S
Cr810       O812   1.765       .  S
Cr811       O812   1.774       .  S
O813       Cr831   2.030       .  S
O813        C821   1.271       .  A
O814       Cr831   1.957       .  S
O814        C815   1.251       .  A
C815        O816   1.272       .  A
C815       C1328   1.486       .  S
O816       Cr832   2.050       .  S
O817       Cr832   1.955       .  S
O817        C818   1.258       .  A
C818        O819   1.276       .  A
C818       C1482   1.487       .  S
O819       Cr833   2.052       .  S
O820       Cr833   1.958       .  S
O820        C821   1.258       .  A
C821       C1387   1.489       .  S
O822       Cr831   1.954       .  S
O822        C830   1.255       .  A
O823       Cr831   2.033       .  S
O823        C824   1.274       .  A
C824        O825   1.258       .  A
C824       C1373   1.474       .  S
O825       Cr832   1.956       .  S
O826       Cr832   2.057       .  S
O826        C827   1.271       .  A
C827        O828   1.251       .  A
C827       C1359   1.491       .  S
O828       Cr833   1.950       .  S
O829       Cr833   2.047       .  S
O829        C830   1.272       .  A
C830       C1342   1.502       .  S
Cr831       O834   1.765       .  S
Cr832       O834   1.779       .  S
Cr833       O834   1.765       .  S
O835       Cr853   2.027       .  S
O835        C843   1.269       .  A
O836       Cr853   1.961       .  S
O836        C837   1.250       .  A
C837        O838   1.269       .  A
C837       C1303   1.481       .  S
O838       Cr854   2.039       .  S
O839       Cr854   1.955       .  S
O839        C840   1.258       .  A
C840        O841   1.273       .  A
C840       C1314   1.487       .  S
O841       Cr855   2.050       .  S
O842       Cr855   1.948       .  S
O842        C843   1.259       .  A
O844       Cr853   1.951       .  S
O844        C852   1.255       .  A
O845       Cr853   2.031       .  S
O845        C846   1.273       .  A
C846        O847   1.259       .  A
C846       C1370   1.475       .  S
O847       Cr854   1.958       .  S
O848       Cr854   2.042       .  S
O848        C849   1.269       .  A
C849        O850   1.255       .  A
C849       C1426   1.488       .  S
O850       Cr855   1.956       .  S
O851       Cr855   2.039       .  S
O851        C852   1.271       .  A
C852       C1286   1.500       .  S
Cr853       O856   1.771       .  S
Cr854       O856   1.771       .  S
Cr855       O856   1.772       .  S
O857        C865   1.272       .  A
O858        C859   1.248       .  A
C859       C1272   1.476       .  S
O860       Cr876   2.041       .  S
O861        C862   1.261       .  A
C862        O863   1.276       .  A
C862       C1317   1.477       .  S
O863       Cr877   2.047       .  S
O864       Cr877   1.955       .  S
O864        C865   1.258       .  A
C865       C1230   1.487       .  S
O866       Cr875   1.940       .  S
O866        C874   1.249       .  A
O867       Cr875   2.034       .  S
O867        C868   1.275       .  A
C868        O869   1.258       .  A
C868       C1244   1.485       .  S
O869       Cr876   1.959       .  S
O870       Cr876   2.041       .  S
O870        C871   1.267       .  A
C871        O872   1.253       .  A
C871       C1496   1.484       .  S
O873       Cr877   2.040       .  S
C874       C1258   1.504       .  S
Cr875       O878   1.770       .  S
Cr876       O878   1.780       .  S
O879       Cr897   2.019       .  S
O879        C887   1.266       .  A
O880       Cr897   1.964       .  S
O880        C881   1.252       .  A
C881        O882   1.271       .  A
C881       C1216   1.484       .  S
O882       Cr898   2.040       .  S
O883       Cr898   1.957       .  S
O883        C884   1.258       .  A
C884        O885   1.275       .  A
C884       C1356   1.480       .  S
O885       Cr899   2.049       .  S
O886       Cr899   1.964       .  S
O886        C887   1.261       .  A
C887       C1247   1.487       .  S
O888       Cr897   1.958       .  S
O888        C896   1.257       .  A
O889       Cr897   2.029       .  S
O889        C890   1.270       .  A
C890        O891   1.260       .  A
C890       C1233   1.480       .  S
O891       Cr898   1.959       .  S
O892       Cr898   2.047       .  S
O892        C893   1.270       .  A
C893        O894   1.255       .  A
C893       C1443   1.492       .  S
O894       Cr899   1.962       .  S
O895       Cr899   2.046       .  S
O895        C896   1.274       .  A
C896       C1205   1.510       .  S
Cr897       O900   1.777       .  S
Cr898       O900   1.774       .  S
Cr899       O900   1.771       .  S
O901       Cr919   2.034       .  S
O901        C909   1.272       .  A
O902       Cr919   1.951       .  S
O902        C903   1.255       .  A
C903        O904   1.270       .  A
C903       C1471   1.501       .  S
O904       Cr920   2.044       .  S
O905       Cr920   1.962       .  S
O905        C906   1.258       .  A
C906        O907   1.271       .  A
C906       C1146   1.489       .  S
O907       Cr921   2.041       .  S
O908       Cr921   1.958       .  S
O908        C909   1.262       .  A
C909       C1188   1.490       .  S
O910       Cr919   1.960       .  S
O910        C918   1.254       .  A
O911       Cr919   2.026       .  S
O911        C912   1.270       .  A
C912        O913   1.259       .  A
C912       C1174   1.483       .  S
O913       Cr920   1.951       .  S
O914       Cr920   2.052       .  S
O914        C915   1.273       .  A
C915        O916   1.257       .  A
C915       C1160   1.497       .  S
O916       Cr921   1.956       .  S
O917       Cr921   2.040       .  S
O917        C918   1.268       .  A
C918       C1219   1.502       .  S
Cr919       O922   1.776       .  S
Cr920       O922   1.775       .  S
Cr921       O922   1.774       .  S
O923       Cr941   2.033       .  S
O923        C931   1.273       .  A
O924       Cr941   1.933       .  S
O924        C925   1.251       .  A
C925        O926   1.274       .  A
C925       C1275   1.500       .  S
O926       Cr942   2.052       .  S
O927       Cr942   1.939       .  S
O927        C928   1.251       .  A
C928        O929   1.273       .  A
C928       C1132   1.473       .  S
O929       Cr943   2.040       .  S
O930       Cr943   1.955       .  S
O930        C931   1.256       .  A
O932       Cr941   1.956       .  S
O932        C940   1.252       .  A
O933       Cr941   2.020       .  S
O933        C934   1.269       .  A
C934        O935   1.257       .  A
C934       C1177   1.473       .  S
O935       Cr942   1.942       .  S
O936       Cr942   2.068       .  S
O936        C937   1.275       .  A
C937        O938   1.255       .  A
C937       C1118   1.498       .  S
O938       Cr943   1.953       .  S
O939       Cr943   2.049       .  S
O939        C940   1.273       .  A
C940       C1415   1.500       .  S
Cr941       O944   1.770       .  S
Cr942       O944   1.775       .  S
Cr943       O944   1.765       .  S
O945       Cr963   2.027       .  S
O945        C953   1.271       .  A
O946       Cr963   1.950       .  S
O946        C947   1.254       .  A
C947        O948   1.270       .  A
C947       C1261   1.488       .  S
O948       Cr964   2.039       .  S
O949       Cr964   1.946       .  S
O949        C950   1.251       .  A
C950        O951   1.271       .  A
C950       C1076   1.487       .  S
O951       Cr965   2.046       .  S
O952       Cr965   1.958       .  S
O952        C953   1.259       .  A
O954       Cr963   1.960       .  S
O954        C962   1.253       .  A
O955       Cr963   2.015       .  S
O955        C956   1.268       .  A
C956        O957   1.257       .  A
C956       C1104   1.476       .  S
O957       Cr964   1.954       .  S
O958       Cr964   2.054       .  S
O958        C959   1.273       .  A
C959        O960   1.258       .  A
C959       C1149   1.494       .  S
O960       Cr965   1.955       .  S
O961       Cr965   2.046       .  S
O961        C962   1.273       .  A
C962       C1331   1.495       .  S
Cr963       O966   1.766       .  S
Cr964       O966   1.769       .  S
Cr965       O966   1.767       .  S
O967       Cr985   2.017       .  S
O967        C975   1.267       .  A
O968       Cr985   1.956       .  S
O968        C969   1.250       .  A
C969        O970   1.274       .  A
C969       C1202   1.488       .  S
O970       Cr986   2.053       .  S
O971       Cr986   1.966       .  S
O971        C972   1.263       .  A
C972        O973   1.275       .  A
C972       C1062   1.491       .  S
O973       Cr987   2.041       .  S
O974       Cr987   1.946       .  S
O974        C975   1.258       .  A
C975       C1107   1.478       .  S
O976       Cr985   1.949       .  S
O976        C984   1.253       .  A
O977       Cr985   2.023       .  S
O977        C978   1.270       .  A
C978        O979   1.259       .  A
C978       C1093   1.477       .  S
O979       Cr986   1.969       .  S
O980       Cr986   2.042       .  S
O980        C981   1.269       .  A
C981        O982   1.255       .  A
C981       C1121   1.485       .  S
O982       Cr987   1.964       .  S
O983       Cr987   2.039       .  S
O983        C984   1.270       .  A
C984       C1289   1.488       .  S
Cr985       O988   1.778       .  S
Cr986       O988   1.778       .  S
Cr987       O988   1.767       .  S
O989      Cr1007   2.036   1_556  S
O989        C997   1.275       .  A
O990      Cr1007   1.950   1_556  S
O990        C991   1.253       .  A
C991       C1300   1.499       .  S
O992      Cr1008   2.043       .  S
O993        C994   1.253       .  A
C994        O995   1.264       .  A
C994       C1135   1.475       .  S
O995      Cr1009   2.024       .  S
O996      Cr1009   1.948       .  S
O996        C997   1.255       .  A
C997       C1034   1.485       .  S
O998       C1006   1.249       .  A
O999       C1000   1.267       .  A
C1000      O1001   1.260       .  A
C1000      C1048   1.482       .  S
O1001     Cr1008   1.953       .  S
O1002     Cr1008   2.052       .  S
O1002      C1003   1.276       .  A
C1003      O1004   1.257       .  A
C1003      C1079   1.479       .  S
O1005     Cr1009   2.021       .  S
C1006      C1454   1.473       .  S
Cr1007     O1010   1.770       .  S
Cr1009     O1010   1.776   1_556  S
O1011     Cr1029   2.031       .  S
O1011      C1019   1.271       .  A
O1012     Cr1029   1.952       .  S
O1012      C1013   1.253       .  A
C1013      O1014   1.273       .  A
C1013      C1345   1.499       .  S
O1014     Cr1030   2.051       .  S
O1015     Cr1030   1.956       .  S
O1015      C1016   1.254       .  A
C1016      O1017   1.275       .  A
C1016      C1163   1.497       .  S
O1017     Cr1031   2.058       .  S
O1018     Cr1031   1.964       .  S
O1018      C1019   1.261       .  A
C1019      C1051   1.487       .  S
O1020     Cr1029   1.943       .  S
O1020      C1028   1.251       .  A
O1021     Cr1029   2.031       .  S
O1021      C1022   1.270       .  A
C1022      O1023   1.259       .  A
C1022      C1037   1.488       .  S
O1023     Cr1030   1.952       .  S
O1024     Cr1030   2.050       .  S
O1024      C1025   1.276       .  A
C1025      O1026   1.259       .  A
C1025      C1065   1.481       .  S
O1026     Cr1031   1.968       .  S
O1027     Cr1031   2.058       .  S
O1027      C1028   1.272       .  A
C1028      C1398   1.497       .  S
Cr1029     O1032   1.771       .  S
Cr1030     O1032   1.767       .  S
Cr1031     O1032   1.780       .  S
C1033      C1034   1.403       .  A
C1033      C1038   1.413       .  A
C1033      H1040   1.085       .  S
C1034      C1035   1.417       .  A
C1035      C1036   1.392       .  A
C1035      N1042   1.430       .  S
C1036      C1037   1.399       .  A
C1036      H1041   1.086       .  S
C1037      C1038   1.416       .  A
C1038      N1039   1.425       .  S
N1039      O1043   1.262       .  A
N1039      O1044   1.261       .  A
N1042      O1046   1.262       .  A
N1042      O1045   1.261       .  A
C1047      C1048   1.394       .  A
C1047      C1052   1.387       .  A
C1047      H1054   1.085       .  S
C1048      C1049   1.415       .  A
C1049      C1050   1.418       .  A
C1049      N1056   1.428       .  S
C1050      C1051   1.409       .  A
C1050      H1055   1.083       .  S
C1051      C1052   1.411       .  A
C1052      N1053   1.423       .  S
N1053      O1057   1.260       .  A
N1053      O1058   1.261       .  A
N1056      O1060   1.261       .  A
N1056      O1059   1.262       .  A
C1061      C1062   1.410       .  A
C1061      C1066   1.403       .  A
C1061      H1068   1.080       .  S
C1062      C1063   1.412       .  A
C1063      C1064   1.407       .  A
C1063      N1070   1.429       .  S
C1064      C1065   1.405       .  A
C1064      H1069   1.067       .  S
C1065      C1066   1.406       .  A
C1066      N1067   1.429       .  S
N1067      O1071   1.260       .  A
N1067      O1072   1.262       .  A
N1070      O1074   1.262       .  A
N1070      O1073   1.262       .  A
C1075      C1076   1.408       .  A
C1075      C1080   1.391       .  A
C1075      H1082   1.083       .  S
C1076      C1077   1.414       .  A
C1077      C1078   1.410       .  A
C1077      N1084   1.431       .  S
C1078      C1079   1.409       .  A
C1078      H1083   1.084       .  S
C1079      C1080   1.407       .  A
C1080      N1081   1.430       .  S
N1081      O1085   1.262       .  A
N1081      O1086   1.262       .  A
N1084      O1087   1.262       .  A
C1089      C1090   1.395       .  A
C1089      C1094   1.398       .  A
C1089      H1096   1.086       .  S
C1090      C1091   1.414       .  A
C1091      C1092   1.406       .  A
C1091      N1098   1.421   1_556  S
C1092      C1093   1.396       .  A
C1092      H1097   1.085       .  S
C1093      C1094   1.413       .  A
C1094      N1095   1.423       .  S
N1095      O1099   1.261       .  A
N1095      O1100   1.261       .  A
N1098      O1102   1.260       .  A
C1103      C1104   1.404       .  A
C1103      C1108   1.408       .  A
C1103      H1110   1.085       .  S
C1104      C1105   1.414       .  A
C1105      C1106   1.389       .  A
C1105      N1112   1.431       .  S
C1106      C1107   1.400       .  A
C1106      H1111   1.086       .  S
C1107      C1108   1.414       .  A
C1108      N1109   1.428       .  S
N1109      O1113   1.262       .  A
N1109      O1114   1.262       .  A
N1112      O1116   1.262       .  A
N1112      O1115   1.262       .  A
C1117      C1118   1.411       .  A
C1117      C1122   1.396       .  A
C1117      H1124   1.085       .  S
C1118      C1119   1.415       .  A
C1119      C1120   1.412       .  A
C1119      N1126   1.428       .  S
C1120      C1121   1.410       .  A
C1120      H1125   1.085       .  S
C1121      C1122   1.405       .  A
C1122      N1123   1.429       .  S
N1123      O1127   1.262       .  A
N1123      O1128   1.262       .  A
N1126      O1130   1.262       .  A
N1126      O1129   1.262       .  A
C1131      C1132   1.406       .  A
C1131      C1136   1.401       .  A
C1131      H1138   1.085       .  S
C1132      C1133   1.414       .  A
C1133      C1134   1.386       .  A
C1133      N1140   1.430       .  S
C1134      C1135   1.401       .  A
C1134      H1139   1.085       .  S
C1135      C1136   1.411       .  A
C1136      N1137   1.429       .  S
N1137      O1141   1.261       .  A
N1137      O1142   1.262       .  A
N1140      O1144   1.261       .  A
N1140      O1143   1.262       .  A
C1145      C1146   1.409       .  A
C1145      C1150   1.411       .  A
C1145      H1152   1.085       .  S
C1146      C1147   1.407       .  A
C1147      C1148   1.393       .  A
C1147      N1154   1.426       .  S
C1148      C1149   1.406       .  A
C1148      H1153   1.085       .  S
C1149      C1150   1.417       .  A
C1150      N1151   1.429       .  S
N1151      O1155   1.261       .  A
N1151      O1156   1.261       .  A
N1154      O1158   1.260       .  A
N1154      O1157   1.262       .  A
C1159      C1160   1.404       .  A
C1159      C1164   1.394       .  A
C1159      H1166   1.082       .  S
C1160      C1161   1.415       .  A
C1161      C1162   1.414       .  A
C1161      N1168   1.429       .  S
C1162      C1163   1.411       .  A
C1162      H1167   1.076       .  S
C1163      C1164   1.416       .  A
C1164      N1165   1.430       .  S
N1165      O1169   1.262       .  A
N1165      O1170   1.261       .  A
N1168      O1172   1.262       .  A
N1168      O1171   1.261       .  A
C1173      C1174   1.413       .  A
C1173      C1178   1.414       .  A
C1173      H1180   1.083       .  S
C1174      C1175   1.411       .  A
C1175      C1176   1.387       .  A
C1175      N1182   1.430       .  S
C1176      C1177   1.399       .  A
C1176      H1181   1.085       .  S
C1177      C1178   1.407       .  A
C1178      N1179   1.429       .  S
N1179      O1183   1.261       .  A
N1179      O1184   1.262       .  A
N1182      O1186   1.261       .  A
N1182      O1185   1.262       .  A
C1187      C1188   1.395       .  A
C1187      C1192   1.391       .  A
C1187      H1194   1.086       .  S
C1188      C1189   1.418       .  A
C1189      C1190   1.416       .  A
C1189      N1196   1.423       .  S
C1190      C1191   1.402       .  A
C1190      H1195   1.085       .  S
C1191      C1192   1.414       .  A
C1192      N1193   1.423       .  S
N1193      O1197   1.259       .  A
N1196      O1200   1.260       .  A
N1196      O1199   1.262       .  A
C1201      C1202   1.409       .  A
C1201      C1206   1.417   1_655  A
C1201      H1208   1.085       .  S
C1202      C1203   1.406       .  A
C1203      C1204   1.400   1_655  A
C1203      N1210   1.429       .  S
C1204      C1205   1.413       .  A
C1204      H1209   1.084       .  S
C1205      C1206   1.418       .  A
C1206      N1207   1.428       .  S
N1207      O1211   1.262   1_455  A
N1207      O1212   1.262       .  A
N1210      O1214   1.262   1_655  A
N1210      O1213   1.262       .  A
C1215      C1216   1.409       .  A
C1215      C1220   1.414       .  A
C1215      H1222   1.084       .  S
C1216      C1217   1.402       .  A
C1217      C1218   1.399       .  A
C1217      N1224   1.428       .  S
C1218      C1219   1.411       .  A
C1218      H1223   1.085       .  S
C1219      C1220   1.416       .  A
C1220      N1221   1.428       .  S
N1221      O1225   1.262       .  A
N1221      O1226   1.262       .  A
N1224      O1228   1.262       .  A
N1224      O1227   1.262       .  A
C1229      C1230   1.410       .  A
C1229      C1234   1.413       .  A
C1229      H1236   1.085       .  S
C1230      C1231   1.412       .  A
C1231      C1232   1.394       .  A
C1231      N1238   1.429       .  S
C1232      C1233   1.400       .  A
C1232      H1237   1.086       .  S
C1233      C1234   1.410       .  A
C1234      N1235   1.427       .  S
N1235      O1239   1.261       .  A
N1235      O1240   1.262       .  A
N1238      O1242   1.262       .  A
N1238      O1241   1.262       .  A
C1243      C1244   1.403       .  A
C1243      C1248   1.414       .  A
C1243      H1250   1.085       .  S
C1244      C1245   1.416       .  A
C1245      C1246   1.392       .  A
C1245      N1252   1.426       .  S
C1246      C1247   1.395       .  A
C1246      H1251   1.086       .  S
C1247      C1248   1.418       .  A
C1248      N1249   1.427       .  S
N1249      O1253   1.261       .  A
N1249      O1254   1.261       .  A
N1252      O1256   1.261       .  A
N1252      O1255   1.260       .  A
C1257      C1258   1.410       .  A
C1257      C1262   1.416   1_455  A
C1257      H1264   1.084       .  S
C1258      C1259   1.424       .  A
C1259      C1260   1.394   1_455  A
C1259      N1266   1.430       .  S
C1260      C1261   1.397       .  A
C1260      H1265   1.086       .  S
C1261      C1262   1.416       .  A
C1262      N1263   1.428       .  S
N1263      O1267   1.262       .  A
N1263      O1268   1.262       .  A
N1266      O1270   1.262       .  A
N1266      O1269   1.262       .  A
C1271      C1272   1.408       .  A
C1271      C1276   1.412       .  A
C1271      H1278   1.089       .  S
C1272      C1273   1.400       .  A
C1273      C1274   1.393       .  A
C1274      C1275   1.415       .  A
C1274      H1279   1.086       .  S
C1275      C1276   1.413       .  A
C1276      N1277   1.428       .  S
N1277      O1281   1.261       .  A
N1277      O1282   1.261       .  A
N1280      O1284   1.262       .  A
N1280      O1283   1.262       .  A
C1285      C1286   1.407       .  A
C1285      C1290   1.393   1_565  A
C1285      H1292   1.085       .  S
C1286      C1287   1.418       .  A
C1287      C1288   1.416   1_565  A
C1287      N1294   1.427       .  S
C1288      C1289   1.408       .  A
C1288      H1293   1.084       .  S
C1289      C1290   1.411       .  A
C1290      N1291   1.430       .  S
N1291      O1295   1.262       .  A
N1291      O1296   1.262       .  A
N1294      O1298   1.261       .  A
N1294      O1297   1.262       .  A
C1299      C1300   1.412       .  A
C1299      C1304   1.399       .  A
C1299      H1306   1.085       .  S
C1300      C1301   1.413       .  A
C1301      C1302   1.412       .  A
C1302      C1303   1.409       .  A
C1302      H1307   1.085       .  S
C1303      C1304   1.404       .  A
C1304      N1305   1.429       .  S
N1305      O1309   1.262       .  A
N1305      O1310   1.262       .  A
N1308      O1312   1.262       .  A
N1308      O1311   1.262       .  A
C1313      C1314   1.406       .  A
C1313      C1318   1.392       .  A
C1313      H1320   1.085       .  S
C1314      C1315   1.414       .  A
C1315      C1316   1.410       .  A
C1316      C1317   1.409       .  A
C1317      C1318   1.404       .  A
C1318      N1319   1.428       .  S
N1319      O1323   1.262       .  A
N1319      O1324   1.261       .  A
N1322      O1326   1.262       .  A
C1327      C1328   1.407       .  A
C1327      C1332   1.404   1_565  A
C1327      H1334   1.095       .  S
C1328      C1329   1.407   1_565  A
C1329      C1330   1.405       .  A
C1329      N1336   1.428       .  S
C1330      C1331   1.413       .  A
C1330      H1335   1.088       .  S
C1331      C1332   1.410       .  A
C1332      N1333   1.428       .  S
N1333      O1337   1.262       .  A
N1333      O1338   1.262       .  A
N1336      O1340   1.262       .  A
N1336      O1339   1.262       .  A
C1341      C1342   1.405       .  A
C1341      C1346   1.395       .  A
C1341      H1348   1.085       .  S
C1342      C1343   1.418       .  A
C1343      C1344   1.419       .  A
C1343      N1350   1.428       .  S
C1344      C1345   1.409       .  A
C1344      H1349   1.084       .  S
C1345      C1346   1.414       .  A
C1346      N1347   1.430       .  S
N1347      O1351   1.262       .  A
N1347      O1352   1.262       .  A
N1350      O1354   1.262       .  A
N1350      O1353   1.262       .  A
C1355      C1356   1.409       .  A
C1355      C1360   1.409       .  A
C1355      H1362   1.085       .  S
C1356      C1357   1.406       .  A
C1357      C1358   1.393       .  A
C1357      N1364   1.429       .  S
C1358      C1359   1.409       .  A
C1358      H1363   1.085       .  S
C1359      C1360   1.413       .  A
C1360      N1361   1.428       .  S
N1361      O1365   1.261       .  A
N1361      O1366   1.262       .  A
N1364      O1368   1.262       .  A
N1364      O1367   1.262       .  A
C1369      C1370   1.404       .  A
C1369      C1374   1.402       .  A
C1369      H1376   1.086       .  S
C1370      C1371   1.409       .  A
C1371      C1372   1.404       .  A
C1371      N1378   1.428       .  S
C1372      C1373   1.405       .  A
C1372      H1377   1.086       .  S
C1373      C1374   1.409       .  A
C1374      N1375   1.429       .  S
N1375      O1379   1.262       .  A
N1375      O1380   1.262       .  A
N1378      O1382   1.262       .  A
N1378      O1381   1.262       .  A
C1383      C1384   1.401       .  A
C1383      C1388   1.391       .  A
C1383      H1390   1.085       .  S
C1384      C1385   1.418       .  A
C1385      C1386   1.416       .  A
C1385      N1392   1.428       .  S
C1386      C1387   1.407       .  A
C1386      H1391   1.084       .  S
C1387      C1388   1.413       .  A
C1388      N1389   1.428       .  S
N1389      O1393   1.260       .  A
N1389      O1394   1.262       .  A
N1392      O1396   1.262       .  A
C1397      C1398   1.404       .  A
C1397      C1402   1.391   1_655  A
C1397      H1404   1.086       .  S
C1398      C1399   1.415       .  A
C1399      C1400   1.420   1_655  A
C1399      N1406   1.427       .  S
C1400      C1401   1.411       .  A
C1400      H1405   1.084       .  S
C1401      C1402   1.414       .  A
C1402      N1403   1.431       .  S
N1403      O1407   1.262       .  A
N1403      O1408   1.262       .  A
N1406      O1410   1.261       .  A
N1406      O1409   1.262       .  A
C1411      C1412   1.410       .  A
C1411      C1416   1.411   1_565  A
C1411      H1418   1.084       .  S
C1412      C1413   1.402   1_565  A
C1413      C1414   1.404       .  A
C1413      N1420   1.429       .  S
C1414      C1415   1.415       .  A
C1414      H1419   1.082       .  S
C1415      C1416   1.411       .  A
C1416      N1417   1.428       .  S
N1417      O1421   1.262   1_545  A
N1417      O1422   1.262       .  A
N1420      O1424   1.262       .  A
N1420      O1423   1.262   1_545  A
C1425      C1426   1.404       .  A
C1425      C1430   1.397       .  A
C1425      H1432   1.085       .  S
C1426      C1427   1.419       .  A
C1427      C1428   1.407       .  A
C1427      N1434   1.433       .  S
C1428      C1429   1.404       .  A
C1428      H1433   1.085       .  S
C1429      C1430   1.418       .  A
C1430      N1431   1.430       .  S
N1431      O1435   1.262       .  A
N1431      O1436   1.262       .  A
N1434      O1438   1.262       .  A
N1434      O1437   1.262       .  A
C1439      C1440   1.407       .  A
C1439      C1444   1.407       .  A
C1439      H1446   1.085       .  S
C1440      C1441   1.408       .  A
C1441      C1442   1.402       .  A
C1441      N1448   1.429       .  S
C1442      C1443   1.410       .  A
C1442      H1447   1.085       .  S
C1443      C1444   1.411       .  A
C1444      N1445   1.428       .  S
N1445      O1449   1.261       .  A
N1445      O1450   1.262       .  A
N1448      O1452   1.262       .  A
N1448      O1451   1.262       .  A
C1453      C1454   1.407       .  A
C1453      C1458   1.405       .  A
C1453      H1460   1.084       .  S
C1454      C1455   1.400       .  A
C1455      C1456   1.400   1_655  A
C1455      N1462   1.429       .  S
C1456      C1457   1.413       .  A
C1456      H1461   1.084       .  S
C1457      C1458   1.409   1_455  A
C1458      N1459   1.429       .  S
N1459      O1463   1.262       .  A
N1459      O1464   1.262       .  A
N1462      O1466   1.262       .  A
N1462      O1465   1.262       .  A
C1467      C1468   1.404       .  A
C1467      C1472   1.415   1_565  A
C1467      H1474   1.085       .  S
C1468      C1469   1.411       .  A
C1469      C1470   1.394   1_565  A
C1469      N1476   1.431       .  S
C1470      C1471   1.408       .  A
C1470      H1475   1.085       .  S
C1471      C1472   1.420       .  A
C1472      N1473   1.433       .  S
N1473      O1477   1.262       .  A
N1473      O1478   1.262       .  A
N1476      O1480   1.262       .  A
N1476      O1479   1.262       .  A
C1481      C1482   1.410       .  A
C1481      C1486   1.409       .  A
C1481      H1488   1.085       .  S
C1482      C1483   1.414       .  A
C1483      C1484   1.393       .  A
C1483      N1490   1.431       .  S
C1484      C1485   1.406       .  A
C1484      H1489   1.085       .  S
C1485      C1486   1.414       .  A
C1486      N1487   1.429       .  S
N1487      O1491   1.261       .  A
N1487      O1492   1.262       .  A
N1490      O1494   1.262       .  A
N1490      O1493   1.262       .  A
C1495      C1496   1.406       .  A
C1495      C1500   1.392       .  A
C1496      C1497   1.413       .  A
C1497      C1498   1.407       .  A
C1497      N1504   1.429       .  S
C1498      C1499   1.407       .  A
C1498      H1503   1.085       .  S
C1499      C1500   1.407       .  A
N1501      O1505   1.262       .  A
N1501      O1506   1.262       .  A
N1504      O1508   1.262       .  A
N1504      O1507   1.262       .  A
C1509      C1510   1.403       .  A
C1509      C1514   1.396       .  A
C1509      H1516   1.086       .  S
C1510      C1511   1.413       .  A
C1511      C1512   1.416       .  A
C1511      N1518   1.427       .  S
C1512      C1513   1.411       .  A
C1512      H1517   1.084       .  S
C1513      C1514   1.416       .  A
C1514      N1515   1.430       .  S
N1515      O1519   1.262       .  A
N1518      O1522   1.262       .  A
N1518      O1521   1.261       .  A
C1523      C1524   1.405       .  A
C1523      C1528   1.405       .  A
C1523      H1530   1.086       .  S
C1524      C1525   1.410       .  A
C1525      C1526   1.408       .  A
C1525      N1532   1.428       .  S
C1526      C1527   1.407       .  A
C1526      H1531   1.085       .  S
C1527      C1528   1.410       .  A
C1528      N1529   1.429       .  S
N1529      O1533   1.262       .  A
N1529      O1534   1.262       .  A
N1532      O1536   1.262       .  A
N1532      O1535   1.262       .  A
