geometry optimzed in LAMMPS
_audit_creation_date              2020-12-01 
_audit_creation_method            'lammps2cif' 
_symmetry_space_group_name_H-M    'P1' 
_symmetry_Int_Tables_number       1 
_symmetry_cell_setting            triclinic 
loop_ 
_symmetry_equiv_pos_as_xyz 
  x,y,z 
_cell_length_a                    35.18367419 
_cell_length_b                    35.30939391799459 
_cell_length_c                    35.41302833596487 
_cell_angle_alpha                 89.95004405172376 
_cell_angle_beta                  89.88582332655291 
_cell_angle_gamma                 90.25113467446708 
loop_ 
_atom_site_label 
_atom_site_type_symbol 
_atom_site_fract_x 
_atom_site_fract_y 
_atom_site_fract_z 
_atom_site_charge 
Fe1        Fe  0.22385609  0.00292043  0.16600246     1.65800
Fe2        Fe  0.31819479  0.99648416  0.16530799     1.73200
Fe3        Fe  0.27047904  0.00359528  0.24839946     1.54400
O4          O  0.22262409  0.03945738  0.24971163    -0.81900
O5          O  0.33375384  0.94983252  0.19519427    -0.80200
O6          O  0.21177930  0.05412077  0.19000361    -0.84400
O7          O  0.19369724  0.97540537  0.20742005    -0.79200
O8          O  0.30737291  0.05022397  0.24656852    -0.81000
O9          O  0.29496063  0.95917752  0.12574529    -0.83700
C10         C  0.20153178  0.95508867  0.23583851     0.97000
C11         C  0.20286644  0.05629058  0.22454117     1.04500
O12         O  0.27102002  0.00053386  0.19354858    -1.12700
O13         O  0.30568259  0.04458146  0.13519120    -0.75200
O14         O  0.24648187  0.03090324  0.11990247    -0.78600
O15         O  0.23321457  0.95759615  0.25303475    -0.79300
C16         C  0.27522819  0.05241895  0.11809842     0.95900
O17         O  0.23469051  0.95110045  0.14296111    -0.77300
O18         O  0.34743568  0.03185555  0.20142193    -0.82500
C19         C  0.33493702  0.94510202  0.23063327     0.98500
C20         C  0.33827601  0.05422966  0.22798833     1.04500
O21         O  0.31635828  0.96596511  0.25357397    -0.78100
C22         C  0.26457459  0.93948460  0.12669718     1.02800
Fe23       Fe  0.78387260  0.99863863  0.16898531     1.65800
Fe24       Fe  0.68904900  0.99961849  0.16474774     1.73200
Fe25       Fe  0.73334857  0.99663784  0.24979642     1.54400
O26         O  0.78075151  0.96098257  0.25384123    -0.81900
O27         O  0.66987105  0.04655782  0.19230758    -0.80200
O28         O  0.79885712  0.94885491  0.19462378    -0.84400
O29         O  0.81162541  0.02811399  0.21064460    -0.79200
O30         O  0.69745959  0.94974849  0.24832354    -0.81000
O31         O  0.71201698  0.03674808  0.12442657    -0.83700
C32         C  0.80282990  0.04529041  0.24072406     0.97000
C33         C  0.80289330  0.94515832  0.23009332     1.04500
O34         O  0.73536260  0.99864121  0.19491804    -1.12700
O35         O  0.70541956  0.95111317  0.13706943    -0.75200
O36         O  0.76436039  0.96783573  0.12310113    -0.78600
O37         O  0.77013745  0.04251290  0.25593825    -0.79300
C38         C  0.73684373  0.94468582  0.12100576     0.95900
O39         O  0.77059142  0.04956017  0.14441930    -0.77300
O40         O  0.65929748  0.96418084  0.20083492    -0.82500
C41         C  0.66808117  0.05280719  0.22749513     0.98500
C42         C  0.66753624  0.94370647  0.22916568     1.04500
O43         O  0.68712557  0.03392727  0.25169031    -0.78100
C44         C  0.74097816  0.05845305  0.12617323     1.02800
Fe45       Fe  0.17305249  0.21726864  0.01204910     1.65800
Fe46       Fe  0.16562822  0.31175007  0.00895778     1.73200
Fe47       Fe  0.25230213  0.27089602  0.01188612     1.54400
O48         O  0.25930676  0.22259743  0.04583466    -0.81900
O49         O  0.19180901  0.33015171  0.96056178    -0.80200
O50         O  0.20092138  0.20298342  0.06030261    -0.84400
O51         O  0.21500045  0.19217846  0.97973452    -0.79200
O52         O  0.24832675  0.30487910  0.05992790    -0.81000
O53         O  0.12435994  0.28703222  0.97442708    -0.83700
C54         C  0.24444685  0.20266580  0.96166504     0.97000
C55         C  0.23661119  0.19927000  0.06173097     1.04500
O56         O  0.19727304  0.26653624  0.01041898    -1.12700
O57         O  0.13979522  0.29580576  0.05863879    -0.75200
O58         O  0.12833053  0.23544569  0.04599342    -0.78600
O59         O  0.25909292  0.23559496  0.96519743    -0.79300
C60         C  0.12655705  0.26381847  0.06805789     0.95900
O61         O  0.14578991  0.22917109  0.96260807    -0.77300
O62         O  0.20212180  0.34329009  0.04228714    -0.82500
C63         C  0.22717716  0.33478402  0.95519402     0.98500
C64         C  0.22823720  0.33430443  0.06530339     1.04500
O65         O  0.25220032  0.31827097  0.97550180    -0.78100
C66         C  0.12689753  0.25808362  0.95326589     1.02800
Fe67       Fe  0.16303770  0.77946929  0.00659006     1.65800
Fe68       Fe  0.16284191  0.68516934  0.00081454     1.73200
Fe69       Fe  0.24680683  0.73340382  0.00168313     1.54400
O70         O  0.24804231  0.78162753  0.96610846    -0.81900
O71         O  0.19113148  0.66402921  0.04653995    -0.80200
O72         O  0.18791371  0.80017761  0.95854261    -0.84400
O73         O  0.20305422  0.80731873  0.03783007    -0.79200
O74         O  0.24826323  0.69904112  0.95406845    -0.81000
O75         O  0.12087332  0.70353868  0.03896782    -0.83700
C76         C  0.23413719  0.79947459  0.05369494     0.97000
C77         C  0.22315207  0.80358481  0.95134638     1.04500
O78         O  0.19148708  0.73262488  0.00325684    -1.12700
O79         O  0.13522227  0.70394465  0.95290770    -0.75200
O80         O  0.11801960  0.75936629  0.97460016    -0.78600
O81         O  0.25170288  0.76867460  0.04815476    -0.79300
C82         C  0.11873916  0.73526754  0.94803206     0.95900
O83         O  0.13907350  0.76131220  0.05614880    -0.77300
O84         O  0.20033282  0.65937113  0.96426212    -0.82500
C85         C  0.22598702  0.66500324  0.05589547     0.98500
C86         C  0.22969489  0.66928166  0.94583291     1.04500
O87         O  0.25006041  0.68652448  0.03896507    -0.78100
C88         C  0.12133163  0.73074356  0.06262789     1.02800
Fe89       Fe  0.01308105  0.17155086  0.78781257     1.65800
Fe90       Fe  0.99751705  0.17105775  0.69362148     1.73200
Fe91       Fe  0.00624729  0.25439054  0.74082422     1.54400
O92         O  0.96143813  0.25685528  0.77914387    -0.81900
O93         O  0.03481346  0.20687658  0.66471687    -0.80200
O94         O  0.98019977  0.20972778  0.81728953    -0.84400
O95         O  0.06174632  0.20124661  0.79979851    -0.79200
O96         O  0.96859073  0.26007427  0.69491260    -0.81000
O97         O  0.04476782  0.13783304  0.70201858    -0.83700
C98         C  0.06205569  0.23631379  0.80662192     0.97000
C99         C  0.96007387  0.23876715  0.81043375     1.04500
O100        O  0.00496877  0.19886759  0.74080703    -1.12700
O101        O  0.95876883  0.13269135  0.71799761    -0.75200
O102        O  0.96460273  0.13994281  0.78016200    -0.78600
O103        O  0.04214416  0.25936039  0.78764297    -0.79300
C104        C  0.94737093  0.12666845  0.75171505     0.95900
O105        O  0.04780793  0.13096786  0.76433076    -0.77300
O106        O  0.95060455  0.20193790  0.67912626    -0.82500
C107        C  0.05792314  0.23307131  0.67457881     0.98500
C108        C  0.94726481  0.23742012  0.67652936     1.04500
O109        O  0.05265940  0.25251401  0.70445846    -0.78100
C110        C  0.06013719  0.12450057  0.73133143     1.02800
Fe111      Fe  0.00180607  0.16543084  0.22742057     1.65800
Fe112      Fe  0.00118415  0.16056395  0.32094713     1.73200
Fe113      Fe  0.00219937  0.24676185  0.27742107     1.54400
O114        O  0.04137260  0.25006886  0.23233790    -0.81900
O115        O  0.95373617  0.18759497  0.34026969    -0.80200
O116        O  0.05207348  0.19070396  0.21280207    -0.84400
O117        O  0.97431366  0.20725374  0.19881282    -0.79200
O118        O  0.04736614  0.24723652  0.31541302    -0.81000
O119        O  0.96449271  0.11993801  0.29761314    -0.83700
C120        C  0.95763290  0.23805328  0.20582030     0.97000
C121        C  0.05856239  0.22616794  0.21111792     1.04500
O122        O  0.00153165  0.19161616  0.27543748    -1.12700
O123        O  0.05071866  0.13406786  0.30395380    -0.75200
O124        O  0.03080879  0.11868023  0.24764139    -0.78600
O125        O  0.95812843  0.25300493  0.23847448    -0.79300
C126        C  0.05672062  0.11845917  0.27245288     0.95900
O127        O  0.95030700  0.14183588  0.24057304    -0.77300
O128        O  0.03591764  0.19642472  0.35109726    -0.82500
C129        C  0.94466964  0.22226032  0.34165562     0.98500
C130        C  0.05386830  0.22680789  0.34424284     1.04500
O131        O  0.96193571  0.24755663  0.32189888    -0.78100
C132        C  0.94194460  0.12249792  0.26962408     1.02800
Fe133      Fe  0.99716508  0.82937942  0.22166459     1.65800
Fe134      Fe  0.00444427  0.83706859  0.31511413     1.73200
Fe135      Fe  0.00009293  0.75036846  0.27325169     1.54400
O136        O  0.96284160  0.74507088  0.22701399    -0.81900
O137        O  0.05095525  0.80912720  0.33454774    -0.80200
O138        O  0.94582394  0.80406028  0.21423774    -0.84400
O139        O  0.02398887  0.78600731  0.19303058    -0.79200
O140        O  0.95440468  0.75276729  0.31049238    -0.81000
O141        O  0.04330819  0.87469091  0.28851554    -0.83700
C142        C  0.04384032  0.75732419  0.20140544     0.97000
C143        C  0.94488402  0.76903383  0.20689081     1.04500
O144        O  0.00142992  0.80529835  0.27035329    -1.12700
O145        O  0.95570208  0.86576498  0.30005579    -0.75200
O146        O  0.96970507  0.87707073  0.24066307    -0.78600
O147        O  0.04494943  0.74419800  0.23493105    -0.79300
C148        C  0.94789520  0.88083846  0.26869994     0.95900
O149        O  0.04854913  0.85359678  0.22975848    -0.77300
O150        O  0.96814310  0.80245767  0.34649772    -0.82500
C151        C  0.05768539  0.77399815  0.33706444     0.98500
C152        C  0.94824894  0.77300409  0.33959820     1.04500
O153        O  0.03899188  0.74945386  0.31813185    -0.78100
C154        C  0.06168764  0.87211180  0.25729006     1.02800
Fe155      Fe  0.83958471  0.78104443  0.00232109     1.65800
Fe156      Fe  0.84378394  0.68688881  0.00407195     1.73200
Fe157      Fe  0.75775641  0.73054910  0.00726363     1.54400
O158        O  0.75438707  0.77803539  0.04249049    -0.81900
O159        O  0.81567733  0.66783050  0.95770899    -0.80200
O160        O  0.81387921  0.79919045  0.05090948    -0.84400
O161        O  0.79810855  0.80700074  0.97140972    -0.79200
O162        O  0.75921950  0.69507636  0.05419408    -0.81000
O163        O  0.88507374  0.70821362  0.96754279    -0.83700
C164        C  0.76697877  0.79812041  0.95592770     0.97000
C165        C  0.77827019  0.80145924  0.05640613     1.04500
O166        O  0.81320275  0.73287505  0.00456901    -1.12700
O167        O  0.87181336  0.70409463  0.05166072    -0.75200
O168        O  0.88513359  0.76267730  0.03431974    -0.78600
O169        O  0.75037060  0.76657338  0.96150338    -0.79300
C170        C  0.88745052  0.73579825  0.05791660     0.95900
O171        O  0.86446312  0.76539655  0.95229320    -0.77300
O172        O  0.80765476  0.65769526  0.03920288    -0.82500
C173        C  0.78030325  0.66571078  0.95114161     0.98500
C174        C  0.77852561  0.66508102  0.05876430     1.04500
O175        O  0.75559764  0.68412788  0.97015109    -0.78100
C176        C  0.88307743  0.73577514  0.94466784     1.02800
Fe177      Fe  0.21681523  0.00426390  0.84050650     1.65800
Fe178      Fe  0.31153907  0.00538005  0.84191976     1.73200
Fe179      Fe  0.26509482  0.00028720  0.75823056     1.54400
O180        O  0.21608789  0.96615644  0.75638318    -0.81900
O181        O  0.32983874  0.05184633  0.81266626    -0.80200
O182        O  0.20061701  0.95447153  0.81611753    -0.84400
O183        O  0.18937342  0.03376881  0.79845712    -0.79200
O184        O  0.29947269  0.95228204  0.76068234    -0.81000
O185        O  0.29018437  0.04339228  0.88224571    -0.83700
C186        C  0.19682797  0.04937785  0.76692357     0.97000
C187        C  0.19431128  0.95110606  0.78107053     1.04500
O188        O  0.26449667  0.00396610  0.81315069    -1.12700
O189        O  0.29547101  0.95679015  0.87037901    -0.75200
O190        O  0.23711501  0.97302978  0.88587453    -0.78600
O191        O  0.22941401  0.04680055  0.75143275    -0.79300
C192        C  0.26388550  0.94900434  0.88567508     0.95900
O193        O  0.23095532  0.05503743  0.86455738    -0.77300
O194        O  0.34000388  0.96946537  0.80549379    -0.82500
C195        C  0.33179434  0.05640395  0.77718641     0.98500
C196        C  0.33019703  0.94730447  0.77893685     1.04500
O197        O  0.31273276  0.03629766  0.75385280    -0.78100
C198        C  0.26151553  0.06530886  0.88045311     1.02800
Fe199      Fe  0.99373432  0.84059074  0.78506413     1.65800
Fe200      Fe  0.99497540  0.84493854  0.69165388     1.73200
Fe201      Fe  0.00245313  0.75999977  0.73565191     1.54400
O202        O  0.03784378  0.75962088  0.78393925    -0.81900
O203        O  0.94968512  0.81483220  0.67173142    -0.80200
O204        O  0.04611722  0.82010105  0.79914918    -0.84400
O205        O  0.96882581  0.79602929  0.81291912    -0.79200
O206        O  0.04999821  0.76514562  0.70074781    -0.81000
O207        O  0.95606591  0.88300141  0.71452508    -0.83700
C208        C  0.95406602  0.76444452  0.80453186     0.97000
C209        C  0.05170388  0.78527850  0.80558542     1.04500
O210        O  0.99622576  0.81450012  0.73729351    -1.12700
O211        O  0.04203033  0.87450666  0.70975045    -0.75200
O212        O  0.01922705  0.88948792  0.76513029    -0.78600
O213        O  0.95671111  0.75005899  0.77170633    -0.79300
C214        C  0.04591726  0.89078670  0.74130534     0.95900
O215        O  0.94080043  0.86018821  0.77119744    -0.77300
O216        O  0.03228632  0.81113377  0.66217197    -0.82500
C217        C  0.94523888  0.77922768  0.66984505     0.98500
C218        C  0.05486124  0.78477971  0.67089274     1.04500
O219        O  0.96533874  0.75562613  0.68874066    -0.78100
C220        C  0.93313213  0.87986198  0.74221484     1.02800
Fe221      Fe  0.84509952  0.22351376  0.00764117     1.65800
Fe222      Fe  0.84290631  0.31804100  0.00749451     1.73200
Fe223      Fe  0.76048364  0.26732503  0.00659405     1.54400
O224        O  0.75960800  0.21837728  0.97308452    -0.81900
O225        O  0.81396863  0.33576645  0.05386577    -0.80200
O226        O  0.81974359  0.20649826  0.95878497    -0.84400
O227        O  0.80498176  0.19379204  0.03851086    -0.79200
O228        O  0.75931032  0.30112627  0.95847869    -0.81000
O229        O  0.88499544  0.29915166  0.04466863    -0.83700
C230        C  0.77390949  0.20013870  0.05551090     0.97000
C231        C  0.78487245  0.19802375  0.95710524     1.04500
O232        O  0.81584731  0.26973051  0.00777233    -1.12700
O233        O  0.87178736  0.30347926  0.95937923    -0.75200
O234        O  0.88914378  0.24548479  0.97495937    -0.78600
O235        O  0.75715513  0.23195153  0.05356116    -0.79300
C236        C  0.88877413  0.27302902  0.95185815     0.95900
O237        O  0.87008427  0.23903063  0.05736891    -0.77300
O238        O  0.80448624  0.34345470  0.97156510    -0.82500
C239        C  0.77856405  0.33550741  0.06036635     0.98500
C240        C  0.77677652  0.33200721  0.95158367     1.04500
O241        O  0.75527957  0.31462534  0.04207649    -0.78100
C242        C  0.88619486  0.27000850  0.06585301     1.02800
Fe243      Fe  0.78075892  0.00175387  0.84630427     1.65800
Fe244      Fe  0.68648497  0.00029599  0.85221875     1.73200
Fe245      Fe  0.72939291  0.00878700  0.76705810     1.54400
O246        O  0.77856144  0.04405982  0.76457252    -0.81900
O247        O  0.66788584  0.95430663  0.82317311    -0.80200
O248        O  0.79618937  0.05321992  0.82429810    -0.84400
O249        O  0.80748517  0.97519456  0.80205955    -0.79200
O250        O  0.69453736  0.05607640  0.77254432    -0.81000
O251        O  0.71034784  0.96209167  0.89071730    -0.83700
C252        C  0.79738602  0.95895462  0.77176209     0.97000
C253        C  0.80105991  0.05856078  0.78912719     1.04500
O254        O  0.73217091  0.00328604  0.82133453    -1.12700
O255        O  0.70320443  0.04807432  0.88072211    -0.75200
O256        O  0.76040527  0.02817442  0.89421469    -0.78600
O257        O  0.76434977  0.96249895  0.75780294    -0.79300
C258        C  0.73527659  0.05378629  0.89549444     0.95900
O259        O  0.76721344  0.94976040  0.86712188    -0.77300
O260        O  0.65588737  0.03626938  0.81788757    -0.82500
C261        C  0.66433434  0.95055763  0.78778341     0.98500
C262        C  0.66411187  0.05954653  0.79188691     1.04500
O263        O  0.68190726  0.97188557  0.76410487    -0.78100
C264        C  0.73821366  0.93970415  0.88595720     1.02800
Fe265      Fe  0.50512275  0.28010057  0.33367713     1.65800
Fe266      Fe  0.50326219  0.18632568  0.33180125     1.73200
Fe267      Fe  0.50487919  0.23618898  0.24913020     1.54400
O268        O  0.46651571  0.28196947  0.24863850    -0.81900
O269        O  0.55055047  0.16774579  0.30426147    -0.80200
O270        O  0.45523073  0.29750009  0.30900382    -0.84400
O271        O  0.53391663  0.31130309  0.29484617    -0.79200
O272        O  0.45888936  0.19870013  0.24524916    -0.81000
O273        O  0.53967077  0.20621020  0.37466234    -0.83700
C274        C  0.55130862  0.30649373  0.26406691     0.97000
C275        C  0.44882917  0.30118738  0.27380887     1.04500
O276        O  0.50481779  0.23404992  0.30409778    -1.12700
O277        O  0.45342750  0.20245051  0.35820320    -0.75200
O278        O  0.47557406  0.25643588  0.37827179    -0.78600
O279        O  0.55008508  0.27513582  0.24634283    -0.79300
C280        C  0.44846667  0.23313320  0.37584389     0.95900
O281        O  0.55606702  0.26451884  0.35695791    -0.77300
O282        O  0.46884536  0.15926874  0.29333989    -0.82500
C283        C  0.55959708  0.16855338  0.26949595     0.98500
C284        C  0.45178818  0.16824355  0.26321661     1.04500
O285        O  0.54369235  0.19078022  0.24568279    -0.78100
C286        C  0.56259436  0.23433259  0.37518323     1.02800
Fe287      Fe  0.32922451  0.50547180  0.28785367     1.65800
Fe288      Fe  0.32575126  0.49718710  0.19410773     1.73200
Fe289      Fe  0.24387177  0.50717242  0.24482331     1.54400
O290        O  0.23878952  0.46390901  0.28501950    -0.81900
O291        O  0.28939519  0.53331748  0.16556881    -0.80200
O292        O  0.28847288  0.47889616  0.32076273    -0.84400
O293        O  0.30691093  0.55743390  0.29993182    -0.79200
O294        O  0.23588021  0.46664395  0.20128179    -0.81000
O295        O  0.35846456  0.54433480  0.20378935    -0.83700
C296        C  0.27233413  0.56334015  0.30801831     0.97000
C297        C  0.25672892  0.46241387  0.31624265     1.04500
O298        O  0.29923036  0.50277930  0.24217374    -1.12700
O299        O  0.36571674  0.45887976  0.21608005    -0.75200
O300        O  0.35216581  0.45321768  0.27716073    -0.78600
O301        O  0.24560004  0.54653972  0.29009221    -0.79300
C302        C  0.36758070  0.44076822  0.24721738     0.95900
O303        O  0.37461204  0.53345208  0.26303521    -0.77300
O304        O  0.29384408  0.45127390  0.18069661    -0.82500
C305        C  0.26219657  0.55519411  0.17451739     0.98500
C306        C  0.25828894  0.44587341  0.18171213     1.04500
O307        O  0.24442843  0.55167073  0.20575326    -0.78100
C308        C  0.37741983  0.55253099  0.23286952     1.02800
Fe309      Fe  0.28439797  0.32811519  0.49849693     1.65800
Fe310      Fe  0.19033871  0.32531659  0.50835697     1.73200
Fe311      Fe  0.24052734  0.24296948  0.50399750     1.54400
O312        O  0.28443389  0.24146063  0.46321904    -0.81900
O313        O  0.17683349  0.29731732  0.55685530    -0.80200
O314        O  0.29504727  0.30167645  0.44840636    -0.84400
O315        O  0.31773028  0.28947032  0.52711921    -0.79200
O316        O  0.20013623  0.24002951  0.46085554    -0.81000
O317        O  0.21292595  0.36810563  0.54228008    -0.83700
C318        C  0.31408161  0.25850750  0.54493149     0.97000
C319        C  0.30200769  0.26674865  0.44405398     1.04500
O320        O  0.23840442  0.29841501  0.50434879    -1.12700
O321        O  0.19987981  0.35361365  0.45834247    -0.75200
O322        O  0.25949398  0.37133586  0.46742783    -0.78600
O323        O  0.28250321  0.24063124  0.54582830    -0.79300
C324        C  0.22912631  0.37178451  0.44818713     0.95900
O325        O  0.27448556  0.35496634  0.54900160    -0.77300
O326        O  0.16102151  0.28668182  0.47647743    -0.82500
C327        C  0.17777455  0.26233799  0.56492067     0.98500
C328        C  0.16925947  0.25816715  0.45641883     1.04500
O329        O  0.19783826  0.23870501  0.54609841    -0.78100
C330        C  0.24418658  0.37086360  0.56007772     1.02800
Fe331      Fe  0.28497646  0.67961165  0.51710198     1.65800
Fe332      Fe  0.19003612  0.67411925  0.50775945     1.73200
Fe333      Fe  0.23513986  0.76029924  0.50820057     1.54400
O334        O  0.28156357  0.76746217  0.54472916    -0.81900
O335        O  0.17100634  0.70251044  0.46159294    -0.80200
O336        O  0.29556822  0.70962180  0.56483421    -0.84400
O337        O  0.31362416  0.71823954  0.48374713    -0.79200
O338        O  0.19792149  0.76158567  0.55361382    -0.81000
O339        O  0.21399474  0.63612619  0.46907360    -0.83700
C340        C  0.30510171  0.74526919  0.46179232     0.97000
C341        C  0.30094255  0.74492612  0.56501978     1.04500
O342        O  0.23643281  0.70472093  0.51073715    -1.12700
O343        O  0.20291083  0.64279949  0.55504554    -0.75200
O344        O  0.26545431  0.63747443  0.55236080    -0.78600
O345        O  0.27305383  0.76188199  0.46295237    -0.79300
C346        C  0.23390615  0.63082382  0.56817687     0.95900
O347        O  0.27600127  0.64909434  0.46912915    -0.77300
O348        O  0.16186712  0.70979518  0.54479487    -0.82500
C349        C  0.16971255  0.73715698  0.45277969     0.98500
C350        C  0.16979646  0.74033490  0.56224403     1.04500
O351        O  0.18967409  0.76176029  0.47003590    -0.78100
C352        C  0.24707741  0.63364003  0.45444288     1.02800
Fe353      Fe  0.33015325  0.49782258  0.72362524     1.65800
Fe354      Fe  0.33001823  0.49837588  0.81762262     1.73200
Fe355      Fe  0.24680211  0.49737944  0.77086506     1.54400
O356        O  0.24312724  0.54326662  0.73421133    -0.81900
O357        O  0.28936148  0.46911359  0.84759891    -0.80200
O358        O  0.29174438  0.53114006  0.69542726    -0.84400
O359        O  0.30259505  0.45034173  0.70498435    -0.79200
O360        O  0.24587673  0.53571886  0.81648166    -0.81000
O361        O  0.35206966  0.44662443  0.80295236    -0.83700
C362        C  0.26697209  0.44608364  0.70142197     0.97000
C363        C  0.26125069  0.54836378  0.70345697     1.04500
O364        O  0.30178240  0.49832191  0.77037772    -1.12700
O365        O  0.37594209  0.52933289  0.79639543    -0.75200
O366        O  0.35745966  0.54664641  0.73925591    -0.78600
O367        O  0.24285321  0.46153093  0.72353678    -0.79300
C368        C  0.37607093  0.55266625  0.76913383     0.95900
O369        O  0.37191811  0.46336064  0.74633673    -0.77300
O370        O  0.30576082  0.54856717  0.83268505    -0.82500
C371        C  0.26286593  0.44657084  0.83846361     0.98500
C372        C  0.27045674  0.55607565  0.83388087     1.04500
O373        O  0.24600712  0.45013017  0.80689186    -0.78100
C374        C  0.36721935  0.43818868  0.77168045     1.02800
Fe375      Fe  0.50433718  0.71496579  0.33133043     1.65800
Fe376      Fe  0.50102680  0.80937265  0.33485916     1.73200
Fe377      Fe  0.49921688  0.76404799  0.24929230     1.54400
O378        O  0.53814643  0.71980905  0.24453352    -0.81900
O379        O  0.45481643  0.83017288  0.30679629    -0.80200
O380        O  0.55362406  0.70149695  0.30312461    -0.84400
O381        O  0.47429626  0.68650775  0.29160560    -0.79200
O382        O  0.54368842  0.80275214  0.24658515    -0.81000
O383        O  0.46194136  0.78693196  0.37389050    -0.83700
C384        C  0.45591823  0.69189818  0.26152669     0.97000
C385        C  0.55743527  0.69967572  0.26741777     1.04500
O386        O  0.50125181  0.76306383  0.30473841    -1.12700
O387        O  0.54959362  0.79346066  0.36377432    -0.75200
O388        O  0.53605013  0.73398698  0.37633325    -0.78600
O389        O  0.45535759  0.72409393  0.24542857    -0.79300
C390        C  0.55812597  0.76216896  0.37875348     0.95900
O391        O  0.45418527  0.72648932  0.35839053    -0.77300
O392        O  0.53801400  0.83723831  0.29911341    -0.82500
C393        C  0.44416448  0.82962093  0.27258011     0.98500
C394        C  0.55333563  0.83050723  0.26736979     1.04500
O395        O  0.45935844  0.80786352  0.24818623    -0.78100
C396        C  0.44221900  0.75644299  0.37400423     1.02800
Fe397      Fe  0.67508512  0.50452305  0.28628396     1.65800
Fe398      Fe  0.67484686  0.50138046  0.19179165     1.73200
Fe399      Fe  0.75867122  0.50137100  0.23898360     1.54400
O400        O  0.76386991  0.53582967  0.28687883    -0.81900
O401        O  0.70086501  0.45267941  0.17572211    -0.80200
O402        O  0.70478168  0.55120909  0.30349167    -0.84400
O403        O  0.71262331  0.46989715  0.31379140    -0.79200
O404        O  0.76060245  0.54883827  0.20394047    -0.81000
O405        O  0.63092075  0.46754859  0.21219522    -0.83700
C406        C  0.74236246  0.45131036  0.30611406     0.97000
C407        C  0.74038898  0.55263522  0.30847386     1.04500
O408        O  0.70310214  0.50222026  0.23914989    -1.12700
O409        O  0.64849826  0.55127145  0.20520360    -0.75200
O410        O  0.63429564  0.54124235  0.26563789    -0.78600
O411        O  0.76051232  0.45481990  0.27510705    -0.79300
C412        C  0.63327606  0.56135177  0.23593079     0.95900
O413        O  0.64510320  0.45655434  0.27229699    -0.77300
O414        O  0.71449061  0.53366996  0.16361527    -0.82500
C415        C  0.73613202  0.44603517  0.17333224     0.98500
C416        C  0.74278938  0.55384284  0.17307842     1.04500
O417        O  0.76071285  0.46489021  0.19208471    -0.78100
C418        C  0.62857855  0.44756669  0.24188037     1.02800
Fe419      Fe  0.72142396  0.66296184  0.51077622     1.65800
Fe420      Fe  0.81713037  0.66812885  0.50677380     1.73200
Fe421      Fe  0.76411755  0.74948424  0.50696993     1.54400
O422        O  0.72740519  0.74937143  0.46066371    -0.81900
O423        O  0.84101559  0.70669578  0.54302715    -0.80200
O424        O  0.69351666  0.69755381  0.47380283    -0.84400
O425        O  0.70081302  0.69240335  0.55604922    -0.79200
O426        O  0.81091105  0.75577767  0.46994140    -0.81000
O427        O  0.80486164  0.63590941  0.55401337    -0.83700
C428        C  0.69358150  0.72738374  0.55738009     0.97000
C429        C  0.69858106  0.72796805  0.45549304     1.04500
O430        O  0.76760008  0.69366374  0.50805610    -1.12700
O431        O  0.79993961  0.62690953  0.46843268    -0.75200
O432        O  0.73702792  0.63171541  0.46488864    -0.78600
O433        O  0.71512017  0.75193383  0.54158717    -0.79300
C434        C  0.76840995  0.61951529  0.45265860     0.95900
O435        O  0.74292730  0.62448082  0.54892102    -0.77300
O436        O  0.83492831  0.69833454  0.46086166    -0.82500
C437        C  0.83099060  0.73613431  0.56092677     0.98500
C438        C  0.83344885  0.73323453  0.45290048     1.04500
O439        O  0.80014913  0.75378657  0.55394967    -0.78100
C440        C  0.77451549  0.62026226  0.56543486     1.02800
Fe441      Fe  0.66876306  0.50035467  0.72979577     1.65800
Fe442      Fe  0.67189883  0.50170771  0.82363786     1.73200
Fe443      Fe  0.75400921  0.49816157  0.77296261     1.54400
O444        O  0.75305391  0.46206317  0.72569185    -0.81900
O445        O  0.70221297  0.54783533  0.84074656    -0.80200
O446        O  0.69220230  0.45016902  0.71470720    -0.84400
O447        O  0.70958415  0.52837772  0.69865963    -0.79200
O448        O  0.75534224  0.45154800  0.80890550    -0.81000
O449        O  0.63101992  0.54012174  0.80375405    -0.83700
C450        C  0.74105477  0.54504418  0.70423551     0.97000
C451        C  0.72686157  0.44581482  0.70650989     1.04500
O452        O  0.69866811  0.50054388  0.77562610    -1.12700
O453        O  0.64135303  0.45373278  0.80970211    -0.75200
O454        O  0.62298300  0.47029383  0.75248641    -0.78600
O455        O  0.75795850  0.54374186  0.73590307    -0.79300
C456        C  0.62247306  0.44732700  0.78006773     0.95900
O457        O  0.64607482  0.55168296  0.74381608    -0.77300
O458        O  0.70948472  0.46524748  0.84995610    -0.82500
C459        C  0.73766298  0.55420889  0.83970739     0.98500
C460        C  0.73783505  0.44546468  0.83980304     1.04500
O461        O  0.76045363  0.53561815  0.81862673    -0.78100
C462        C  0.63034416  0.56133702  0.77455433     1.02800
Fe463      Fe  0.49656817  0.71829599  0.68625778     1.65800
Fe464      Fe  0.50061053  0.81389276  0.68396330     1.73200
Fe465      Fe  0.49914840  0.76734913  0.76863099     1.54400
O466        O  0.46464163  0.71875971  0.77434896    -0.81900
O467        O  0.54592688  0.83412033  0.71300171    -0.80200
O468        O  0.45003002  0.70092079  0.71594679    -0.84400
O469        O  0.53222176  0.69208478  0.72385975    -0.79200
O470        O  0.45148283  0.80275822  0.76913047    -0.81000
O471        O  0.54031531  0.79359178  0.64516998    -0.83700
C472        C  0.55052321  0.70029352  0.75355871     0.97000
C473        C  0.44819010  0.69643281  0.75126932     1.04500
O474        O  0.49905955  0.76655778  0.71307492    -1.12700
O475        O  0.45387806  0.79915101  0.65286314    -0.75200
O476        O  0.45926616  0.73698297  0.64565898    -0.78600
O477        O  0.54603152  0.73128094  0.77154284    -0.79300
C478        C  0.44238344  0.76797444  0.63971098     0.95900
O479        O  0.54359959  0.73138341  0.65482447    -0.77300
O480        O  0.46244154  0.84032081  0.71936024    -0.82500
C481        C  0.55302403  0.83554996  0.74789440     0.98500
C482        C  0.44371343  0.83167228  0.74885108     1.04500
O483        O  0.53561336  0.81469662  0.77179098    -0.78100
C484        C  0.55634151  0.76174054  0.64045933     1.02800
Fe485      Fe  0.49388922  0.28157448  0.67556461     1.65800
Fe486      Fe  0.50714350  0.18817970  0.67976174     1.73200
Fe487      Fe  0.49516214  0.23881142  0.76019133     1.54400
O488        O  0.53638372  0.28138378  0.76379112    -0.81900
O489        O  0.47100086  0.15856945  0.71515836    -0.80200
O490        O  0.51596162  0.31700078  0.71636692    -0.84400
O491        O  0.44057075  0.28916500  0.69655685    -0.79200
O492        O  0.53749105  0.19721889  0.76873015    -0.81000
O493        O  0.45907644  0.19639878  0.64770543    -0.83700
C494        C  0.43367053  0.29615857  0.73087640     0.97000
C495        C  0.53439265  0.31316116  0.74676073     1.04500
O496        O  0.49948718  0.23602898  0.70562310    -1.12700
O497        O  0.54575439  0.21289542  0.64166403    -0.75200
O498        O  0.54755971  0.27439007  0.65542885    -0.78600
O499        O  0.45299567  0.28084699  0.75737476    -0.79300
C500        C  0.56319941  0.24474323  0.64274535     0.95900
O501        O  0.47027718  0.25484459  0.62931257    -0.77300
O502        O  0.55345615  0.17533363  0.71175453    -0.82500
C503        C  0.44834894  0.16756526  0.74166543     0.98500
C504        C  0.55869353  0.17737677  0.74700971     1.04500
O505        O  0.45245179  0.19813878  0.76012981    -0.78100
C506        C  0.44982891  0.22531012  0.62906540     1.02800
Fe507      Fe  0.71858548  0.33369651  0.50803843     1.65800
Fe508      Fe  0.81370477  0.33799782  0.50513066     1.73200
Fe509      Fe  0.76884412  0.25267315  0.50888221     1.54400
O510        O  0.72469185  0.24931390  0.54820430    -0.81900
O511        O  0.83253107  0.31015976  0.45778039    -0.80200
O512        O  0.70376588  0.30813401  0.55827617    -0.84400
O513        O  0.68909202  0.29234074  0.47977047    -0.79200
O514        O  0.80740866  0.25378627  0.55395039    -0.81000
O515        O  0.79001654  0.37813548  0.46894816    -0.83700
C516        C  0.69682283  0.26209261  0.46237601     0.97000
C517        C  0.70309385  0.27268193  0.56520468     1.04500
O518        O  0.76710112  0.30758254  0.50702941    -1.12700
O519        O  0.79784911  0.36518348  0.55406789    -0.75200
O520        O  0.73973272  0.37993188  0.53711309    -0.78600
O521        O  0.72920587  0.24621689  0.46499484    -0.79300
C522        C  0.76625484  0.38037506  0.56124828     0.95900
O523        O  0.73151107  0.35790774  0.45683830    -0.77300
O524        O  0.84435459  0.30289641  0.54006310    -0.82500
C525        C  0.83211583  0.27510024  0.44990936     0.98500
C526        C  0.83656548  0.27429637  0.56035407     1.04500
O527        O  0.81253077  0.25098178  0.46875031    -0.78100
C528        C  0.76123865  0.37612871  0.44735261     1.02800
C529        C  0.66226521  0.28262412  0.62111622    -0.06000
C530        C  0.67356135  0.25849079  0.59181420     0.00000
C531        C  0.65221730  0.22479677  0.58520806    -0.08600
C532        C  0.61621422  0.22110416  0.60237019    -0.06000
C533        C  0.60289934  0.24787436  0.62844099    -0.00100
C534        C  0.62840237  0.27647369  0.64124003    -0.08500
C535        C  0.62104766  0.30013397  0.67628989     0.61900
H536        H  0.67982152  0.30702748  0.62776431     0.12500
H537        H  0.59796904  0.19748253  0.59503516     0.12600
C538        C  0.66704149  0.19264403  0.56085408     0.62100
F539        F  0.65473183  0.31407544  0.69097306    -0.23100
F540        F  0.60426910  0.27837122  0.70421168    -0.20400
F541        F  0.59768717  0.33026291  0.66756374    -0.20100
F542        F  0.70158603  0.18056743  0.57489563    -0.20100
F543        F  0.67171302  0.20426934  0.52397921    -0.20500
F544        F  0.64251027  0.16187137  0.56080836    -0.23100
C545        C  0.56077803  0.41569628  0.76848155    -0.06000
C546        C  0.59937250  0.41220142  0.77703440     0.00000
C547        C  0.61566473  0.37549931  0.77942362    -0.08600
C548        C  0.59300257  0.34357477  0.77123021    -0.06000
C549        C  0.55480704  0.34718726  0.76101798    -0.00100
C550        C  0.53786696  0.38377272  0.76128431    -0.08500
C551        C  0.49547062  0.38919076  0.75577098     0.61900
H552        H  0.54872215  0.44385428  0.76720185     0.12500
H553        H  0.60528195  0.31551513  0.77163376     0.12600
C554        C  0.65679555  0.36989170  0.79046468     0.62100
F555        F  0.48405265  0.42541737  0.76540141    -0.23100
F556        F  0.47607645  0.36409927  0.77875929    -0.20400
F557        F  0.48563761  0.38307312  0.71850591    -0.20100
F558        F  0.66124137  0.38111639  0.82735013    -0.20100
F559        F  0.68050468  0.39114768  0.76758181    -0.20500
F560        F  0.66778535  0.33237994  0.78780712    -0.23100
C561        C  0.62969901  0.62911747  0.75663925    -0.06000
C562        C  0.61154222  0.59903127  0.77577681     0.00000
C563        C  0.57572050  0.60537953  0.79303499    -0.08600
C564        C  0.55861038  0.64119333  0.78886188    -0.06000
C565        C  0.57576741  0.67025585  0.76767420    -0.00100
C566        C  0.61216498  0.66455129  0.75189071    -0.08500
C567        C  0.63149948  0.69536012  0.72881213     0.61900
H568        H  0.65729880  0.62414093  0.74402075     0.12500
H569        H  0.53030590  0.64600383  0.79991522     0.12600
C570        C  0.55446151  0.57397693  0.81353039     0.62100
F571        F  0.66795362  0.68526529  0.71813880    -0.23100
F572        F  0.63384143  0.72816807  0.74995659    -0.20400
F573        F  0.61078116  0.70246422  0.69646466    -0.20100
F574        F  0.57422505  0.56365608  0.84559833    -0.20100
F575        F  0.55058406  0.54287508  0.79008518    -0.20500
F576        F  0.51844689  0.58517032  0.82455106    -0.23100
C577        C  0.77492230  0.42640288  0.65876710    -0.06000
C578        C  0.73682602  0.42480901  0.67121848     0.00000
C579        C  0.70900728  0.40796504  0.64705574    -0.08600
C580        C  0.72071033  0.39386539  0.61194547    -0.06000
C581        C  0.75833944  0.39668943  0.59911342    -0.00100
C582        C  0.78617774  0.41313228  0.62294487    -0.08500
C583        C  0.82724182  0.41798392  0.61046215     0.61900
H584        H  0.79599249  0.43934482  0.67690611     0.12500
H585        H  0.69994993  0.38067713  0.59362597     0.12600
C586        C  0.66672782  0.40566410  0.65657949     0.62100
F587        F  0.84769563  0.44054378  0.63518468    -0.23100
F588        F  0.82862136  0.43501623  0.57527794    -0.20400
F589        F  0.84472560  0.38302315  0.60883964    -0.20100
F590        F  0.65123602  0.44161170  0.65683109    -0.20100
F591        F  0.66154436  0.38869118  0.69137230    -0.20500
F592        F  0.64651422  0.38453571  0.63045467    -0.23100
C593        C  0.77972692  0.61826125  0.63491068    -0.06000
C594        C  0.77473243  0.59835348  0.60090767     0.00000
C595        C  0.76488731  0.55960119  0.60184914    -0.08600
C596        C  0.75726129  0.54270655  0.63692212    -0.06000
C597        C  0.75847055  0.56351122  0.67080081    -0.00100
C598        C  0.77144754  0.60147687  0.67018169    -0.08500
C599        C  0.77449018  0.62458884  0.70610624     0.61900
H600        H  0.78785851  0.64780298  0.63342091     0.12500
H601        H  0.74821466  0.51333613  0.63796857     0.12600
C602        C  0.76170985  0.53653122  0.56588028     0.62100
F603        F  0.80098237  0.60835032  0.72985014    -0.23100
F604        F  0.73959124  0.62563081  0.72412098    -0.20400
F605        F  0.78582565  0.66150146  0.69889735    -0.20100
F606        F  0.79467661  0.54063230  0.54489545    -0.20100
F607        F  0.73111331  0.54895097  0.54490758    -0.20500
F608        F  0.75651217  0.49833994  0.57329257    -0.23100
C609        C  0.65851442  0.76764618  0.60404772    -0.06000
C610        C  0.65767343  0.73904829  0.57645587     0.00000
C611        C  0.62214221  0.72164721  0.56733201    -0.08600
C612        C  0.58981682  0.73118456  0.58836857    -0.06000
C613        C  0.59086119  0.75849339  0.61674737    -0.00100
C614        C  0.62543866  0.77781120  0.62445303    -0.08500
C615        C  0.62759905  0.80781497  0.65500547     0.61900
H616        H  0.68546547  0.78121068  0.61018187     0.12500
H617        H  0.56290722  0.71724022  0.58282521     0.12600
C618        C  0.61697118  0.69519013  0.53382195     0.62100
F619        F  0.66406631  0.82210700  0.65901367    -0.23100
F620        F  0.61648512  0.79247114  0.68926065    -0.20400
F621        F  0.60388170  0.83757672  0.64593644    -0.20100
F622        F  0.63845936  0.66281616  0.53786496    -0.20100
F623        F  0.62732310  0.71416272  0.50138935    -0.20500
F624        F  0.57953019  0.68379303  0.52939088    -0.23100
C625        C  0.77857875  0.44407762  0.36453176    -0.06000
C626        C  0.75616447  0.42682009  0.33663615     0.00000
C627        C  0.73848162  0.39173878  0.34410128    -0.08600
C628        C  0.74177222  0.37608596  0.38036777    -0.06000
C629        C  0.76226695  0.39422921  0.40932806    -0.00100
C630        C  0.78217215  0.42836889  0.40097775    -0.08500
C631        C  0.80513176  0.44946895  0.43061536     0.61900
H632        H  0.79117619  0.47141967  0.35821188     0.12500
H633        H  0.72703558  0.34997811  0.38672512     0.12600
C634        C  0.71471805  0.37198832  0.31425454     0.62100
F635        F  0.81817515  0.48411335  0.41744282    -0.23100
F636        F  0.83644022  0.42826630  0.44077923    -0.20400
F637        F  0.78284425  0.45611250  0.46212362    -0.20100
F638        F  0.73566233  0.36846781  0.28136277    -0.20100
F639        F  0.68247650  0.39291725  0.30694913    -0.20500
F640        F  0.70348910  0.33610694  0.32558991    -0.23100
C641        C  0.74160001  0.54916177  0.37708605    -0.06000
C642        C  0.75353211  0.56858289  0.34455720     0.00000
C643        C  0.77445378  0.60257065  0.34790866    -0.08600
C644        C  0.78172804  0.61683537  0.38438436    -0.06000
C645        C  0.76774775  0.59840503  0.41684526    -0.00100
C646        C  0.74793449  0.56372557  0.41331440    -0.08500
C647        C  0.73347943  0.54231240  0.44763700     0.61900
H648        H  0.72592434  0.52289373  0.37374199     0.12500
H649        H  0.79639189  0.64366019  0.38775039     0.12600
C650        C  0.78707060  0.62430050  0.31320032     0.62100
F651        F  0.71770012  0.50765625  0.43799871    -0.23100
F652        F  0.70589025  0.56315630  0.46597362    -0.20400
F653        F  0.76338113  0.53582164  0.47197563    -0.20100
F654        F  0.75585757  0.63230575  0.29096105    -0.20100
F655        F  0.81255396  0.60272501  0.29276954    -0.20500
F656        F  0.80448650  0.65823031  0.32249393    -0.23100
C657        C  0.61261603  0.72076138  0.39207495    -0.06000
C658        C  0.59578925  0.75643375  0.39710943     0.00000
C659        C  0.61549720  0.78439411  0.41828238    -0.08600
C660        C  0.65122769  0.77520238  0.43403860    -0.06000
C661        C  0.66729893  0.73904898  0.42974599    -0.00100
C662        C  0.64811506  0.71165468  0.40742182    -0.08500
C663        C  0.66396602  0.67215744  0.40077242     0.61900
H664        H  0.59740298  0.69940172  0.37611444     0.12500
H665        H  0.66582995  0.79547962  0.45183710     0.12600
C666        C  0.59789970  0.82268122  0.42643402     0.62100
F667        F  0.64776695  0.65525541  0.36937994    -0.23100
F668        F  0.65635163  0.64939367  0.43169351    -0.20400
F669        F  0.70280145  0.67389885  0.39477195    -0.20100
F670        F  0.56177197  0.81775380  0.44122598    -0.20100
F671        F  0.59582134  0.84364894  0.39352722    -0.20500
F672        F  0.61902420  0.84319342  0.45231806    -0.23100
C673        C  0.56127767  0.64033361  0.23186293    -0.06000
C674        C  0.58060664  0.66871192  0.25203614     0.00000
C675        C  0.61920611  0.66378240  0.26149085    -0.08600
C676        C  0.63575332  0.62815937  0.25526078    -0.06000
C677        C  0.61522243  0.59867666  0.23808704    -0.00100
C678        C  0.57828307  0.60522538  0.22433737    -0.08500
C679        C  0.55688696  0.57472718  0.20301270     0.61900
H680        H  0.53209415  0.64523762  0.22361281     0.12500
H681        H  0.66470745  0.62290284  0.26415327     0.12600
C682        C  0.64292412  0.69655005  0.27610249     0.62100
F683        F  0.52076485  0.58629108  0.19290958    -0.23100
F684        F  0.55361560  0.54279683  0.22532538    -0.20400
F685        F  0.57655707  0.56560040  0.17045669    -0.20100
F686        F  0.63015917  0.70771067  0.31115587    -0.20100
F687        F  0.64005708  0.72677021  0.25139483    -0.20500
F688        F  0.68092974  0.68702201  0.27914901    -0.23100
C689        C  0.38023746  0.38844036  0.72476579    -0.06000
C690        C  0.37842286  0.39840927  0.76312055     0.00000
C691        C  0.38488921  0.36982363  0.79068841    -0.08600
C692        C  0.39937268  0.33468018  0.77861907    -0.06000
C693        C  0.40619278  0.32682632  0.74025987    -0.00100
C694        C  0.39239658  0.35270071  0.71268872    -0.08500
C695        C  0.39075021  0.34386630  0.67061403     0.61900
H696        H  0.37233149  0.40924969  0.70376850     0.12500
H697        H  0.40753190  0.31376529  0.79940345     0.12600
C698        C  0.37741650  0.37598045  0.83250036     0.62100
F699        F  0.36791647  0.36925612  0.65140266    -0.23100
F700        F  0.37544288  0.30812664  0.66508452    -0.20400
F701        F  0.42673316  0.34588362  0.65491349    -0.20100
F702        F  0.33915157  0.38288521  0.83818102    -0.20100
F703        F  0.39869544  0.40627952  0.84549530    -0.20500
F704        F  0.38688235  0.34456987  0.85388997    -0.23100
C705        C  0.37789738  0.62101818  0.78318163    -0.06000
C706        C  0.39764526  0.58833183  0.77199587     0.00000
C707        C  0.43538271  0.59130540  0.75886965    -0.08600
C708        C  0.45183420  0.62749156  0.75578467    -0.06000
C709        C  0.43127738  0.66045439  0.76441432    -0.00100
C710        C  0.39412767  0.65739946  0.77920599    -0.08500
C711        C  0.37123593  0.69241422  0.78838408     0.61900
H712        H  0.34880686  0.61795759  0.79286243     0.12500
H713        H  0.48027221  0.63051584  0.74434225     0.12600
C714        C  0.45721014  0.55650353  0.74639528     0.62100
F715        F  0.33638209  0.68332319  0.80429440    -0.23100
F716        F  0.36493211  0.71284043  0.75566281    -0.20400
F717        F  0.39103364  0.71476837  0.81372449    -0.20100
F718        F  0.43873934  0.53947667  0.71638900    -0.20100
F719        F  0.45941084  0.53101937  0.77598472    -0.20500
F720        F  0.49381606  0.56545897  0.73497625    -0.23100
C721        C  0.25709420  0.62792544  0.63331695    -0.06000
C722        C  0.23452635  0.61136345  0.60507056     0.00000
C723        C  0.21531693  0.57686777  0.61236569    -0.08600
C724        C  0.22189349  0.55846524  0.64708227    -0.06000
C725        C  0.24659883  0.57391189  0.67418978    -0.00100
C726        C  0.26351488  0.60969022  0.66791847    -0.08500
C727        C  0.28948766  0.62762594  0.69710124     0.61900
H728        H  0.27087993  0.65480584  0.62743799     0.12500
H729        H  0.20964267  0.53076011  0.65240613     0.12600
C730        C  0.18981236  0.55879883  0.58292918     0.62100
F731        F  0.29987767  0.66418354  0.68719406    -0.23100
F732        F  0.32219842  0.60644167  0.70063914    -0.20400
F733        F  0.27110955  0.62900825  0.73163882    -0.20100
F734        F  0.20995768  0.55339128  0.54980004    -0.20100
F735        F  0.15919301  0.58214851  0.57586724    -0.20500
F736        F  0.17589627  0.52401154  0.59475458    -0.23100
C737        C  0.34155850  0.72810739  0.40574969    -0.06000
C738        C  0.33434938  0.75521030  0.43353411     0.00000
C739        C  0.36047604  0.78516594  0.43902972    -0.08600
C740        C  0.39513468  0.78482638  0.41886776    -0.06000
C741        C  0.40397468  0.75586774  0.39290403    -0.00100
C742        C  0.37530672  0.72831335  0.38444175    -0.08500
C743        C  0.37926191  0.69926077  0.35299037     0.61900
H744        H  0.32100362  0.70544316  0.40211225     0.12500
H745        H  0.41600679  0.80679339  0.42412315     0.12600
C746        C  0.35186667  0.81684264  0.46655221     0.62100
F747        F  0.34534506  0.68048873  0.34594275    -0.23100
F748        F  0.40596148  0.67235347  0.36268964    -0.20400
F749        F  0.38998317  0.71723730  0.31995048    -0.20100
F750        F  0.34907352  0.80259144  0.50275463    -0.20100
F751        F  0.31778705  0.83360582  0.45688802    -0.20500
F752        F  0.37985875  0.84452433  0.46620768    -0.23100
C753        C  0.36961301  0.74827939  0.56425258    -0.06000
C754        C  0.33596472  0.75798450  0.58312845     0.00000
C755        C  0.33737279  0.77365528  0.61967957    -0.08600
C756        C  0.37327839  0.77903740  0.63643729    -0.06000
C757        C  0.40681445  0.76725335  0.61815745    -0.00100
C758        C  0.40516744  0.75211343  0.58137163    -0.08500
C759        C  0.44044477  0.73828770  0.56094968     0.61900
H760        H  0.36762449  0.73537586  0.53657169     0.12500
H761        H  0.37527771  0.79020206  0.66485560     0.12600
C762        C  0.30120835  0.78241653  0.64124215     0.62100
F763        F  0.43348731  0.73195661  0.52300137    -0.23100
F764        F  0.45233426  0.70463024  0.57694176    -0.20400
F765        F  0.46927918  0.76490450  0.56363350    -0.20100
F766        F  0.27950277  0.80781354  0.62092629    -0.20100
F767        F  0.28052360  0.74941919  0.64661673    -0.20500
F768        F  0.30876534  0.79806783  0.67629137    -0.23100
C769        C  0.23877806  0.37156983  0.62948283    -0.06000
C770        C  0.24500972  0.39194225  0.59591141     0.00000
C771        C  0.25339338  0.43101309  0.59740986    -0.08600
C772        C  0.25809733  0.44802851  0.63296265    -0.06000
C773        C  0.25405571  0.42721018  0.66659224    -0.00100
C774        C  0.24285985  0.38884292  0.66510554    -0.08500
C775        C  0.23566773  0.36658529  0.70092581     0.61900
H776        H  0.23151507  0.34178351  0.62753258     0.12500
H777        H  0.26636687  0.47757141  0.63479692     0.12600
C778        C  0.25818161  0.45415987  0.56160156     0.62100
F779        F  0.22468577  0.32965186  0.69342539    -0.23100
F780        F  0.20690952  0.38380025  0.72120757    -0.20400
F781        F  0.26837522  0.36572900  0.72250337    -0.20100
F782        F  0.22560045  0.45141548  0.53996236    -0.20100
F783        F  0.28868296  0.44063244  0.54103920    -0.20500
F784        F  0.26463409  0.49207935  0.56933489    -0.23100
C785        C  0.34545716  0.22803748  0.60091410    -0.06000
C786        C  0.34860893  0.24364426  0.56453093     0.00000
C787        C  0.38540295  0.24606918  0.54764827    -0.08600
C788        C  0.41761122  0.23856136  0.56943816    -0.06000
C789        C  0.41461580  0.22552146  0.60637663    -0.00100
C790        C  0.37809373  0.21795205  0.62191524    -0.08500
C791        C  0.37375666  0.20023680  0.66070754     0.61900
H792        H  0.31739691  0.22472603  0.61311306     0.12500
H793        H  0.44576894  0.24305588  0.55774513     0.12600
C794        C  0.39098031  0.25355183  0.50601803     0.62100
F795        F  0.38938028  0.16435786  0.66043154    -0.23100
F796        F  0.33601189  0.19691870  0.67133555    -0.20400
F797        F  0.39220263  0.22217561  0.68730377    -0.20100
F798        F  0.38265360  0.29077302  0.49760042    -0.20100
F799        F  0.36761888  0.22918467  0.48635539    -0.20500
F800        F  0.42793886  0.24677832  0.49436569    -0.23100
C801        C  0.38473291  0.62099064  0.22016554    -0.06000
C802        C  0.40125137  0.58701608  0.23288850     0.00000
C803        C  0.43788489  0.58777158  0.24904897    -0.08600
C804        C  0.45538130  0.62291413  0.25453824    -0.06000
C805        C  0.43733468  0.65741291  0.24580016    -0.00100
C806        C  0.40215358  0.65651928  0.22651035    -0.08500
C807        C  0.38235140  0.69244964  0.21421432     0.61900
H808        H  0.35686185  0.61964161  0.20727759     0.12500
H809        H  0.48312231  0.62366948  0.26766741     0.12600
C810        C  0.45893372  0.55187760  0.26005230     0.62100
F811        F  0.34792245  0.68497955  0.19681041    -0.23100
F812        F  0.40510562  0.71188689  0.18881792    -0.20400
F813        F  0.37534721  0.71496308  0.24529388    -0.20100
F814        F  0.46069044  0.52798162  0.22925189    -0.20100
F815        F  0.44082959  0.53371907  0.28963458    -0.20500
F816        F  0.49572280  0.55943133  0.27163034    -0.23100
C817        C  0.29326876  0.58442956  0.37100760    -0.06000
C818        C  0.26460316  0.58564129  0.34327216     0.00000
C819        C  0.22935077  0.60280392  0.35271976    -0.08600
C820        C  0.22424111  0.61729883  0.38967624    -0.06000
C821        C  0.25252045  0.61409093  0.41760619    -0.00100
C822        C  0.28724162  0.59618011  0.40830649    -0.08500
C823        C  0.31734687  0.58723073  0.43784643     0.61900
H824        H  0.32024019  0.57148900  0.36416565     0.12500
H825        H  0.19801546  0.63147229  0.39701126     0.12600
C826        C  0.19750144  0.60649584  0.32415747     0.62100
F827        F  0.34235562  0.55975699  0.42535859    -0.23100
F828        F  0.30028737  0.57357740  0.47042440    -0.20400
F829        F  0.33824955  0.61941027  0.44610608    -0.20100
F830        F  0.18143044  0.57138080  0.31732798    -0.20100
F831        F  0.21158913  0.62137353  0.29077551    -0.20500
F832        F  0.16902808  0.63024947  0.33694608    -0.23100
C833        C  0.23202358  0.40256500  0.34499265    -0.06000
C834        C  0.24140635  0.44095201  0.34924204     0.00000
C835        C  0.24047884  0.45714764  0.38605801    -0.08600
C836        C  0.23428637  0.43378581  0.41748027    -0.06000
C837        C  0.22815756  0.39503786  0.41347873    -0.00100
C838        C  0.22550440  0.37911789  0.37674961    -0.08500
C839        C  0.21872515  0.33711458  0.37134787     0.61900
H840        H  0.23242877  0.39055714  0.31686617     0.12500
H841        H  0.23577289  0.44541091  0.44576409     0.12600
C842        C  0.24673010  0.49891754  0.39257440     0.62100
F843        F  0.21686335  0.32731776  0.33355254    -0.23100
F844        F  0.18480644  0.32660469  0.38821170    -0.20400
F845        F  0.24822308  0.31728297  0.38758279    -0.20100
F846        F  0.22456782  0.51912427  0.36763448    -0.20100
F847        F  0.28469989  0.50732333  0.38739044    -0.20500
F848        F  0.23672742  0.50986024  0.42879544    -0.23100
C849        C  0.63019385  0.24038722  0.45797730    -0.06000
C850        C  0.66535011  0.24575412  0.43957467     0.00000
C851        C  0.66706520  0.24261715  0.39980153    -0.08600
C852        C  0.63288855  0.23712190  0.37961083    -0.06000
C853        C  0.59770211  0.23295775  0.39817247    -0.00100
C854        C  0.59653619  0.23255572  0.43802313    -0.08500
C855        C  0.55969411  0.22517572  0.45925287     0.61900
H856        H  0.62889699  0.24402549  0.48826954     0.12500
H857        H  0.63319733  0.23694436  0.34902045     0.12600
C858        C  0.70448396  0.24669202  0.37889612     0.62100
F859        F  0.56452865  0.22745320  0.49798471    -0.23100
F860        F  0.54662482  0.18916231  0.45085250    -0.20400
F861        F  0.53255611  0.25137692  0.44883420    -0.20100
F862        F  0.72863454  0.21787740  0.38966876    -0.20100
F863        F  0.72118513  0.28106405  0.38742933    -0.20500
F864        F  0.69972451  0.24483866  0.34014259    -0.23100
C865        C  0.38189041  0.21405471  0.39217938    -0.06000
C866        C  0.41061311  0.24213026  0.39285171     0.00000
C867        C  0.40141297  0.27870026  0.40705628    -0.08600
C868        C  0.36386240  0.28576156  0.41802022    -0.06000
C869        C  0.33600868  0.25715441  0.42046710    -0.00100
C870        C  0.34501373  0.22050959  0.40670166    -0.08500
C871        C  0.31642118  0.18822102  0.40743652     0.61900
H872        H  0.38885892  0.18632738  0.38123777     0.12500
H873        H  0.35693927  0.31380735  0.42800627     0.12600
C874        C  0.43058064  0.31040313  0.41263654     0.62100
F875        F  0.32851012  0.15769673  0.38609165    -0.23100
F876        F  0.28217458  0.20029717  0.39279328    -0.20400
F877        F  0.31113927  0.17576570  0.44410608    -0.20100
F878        F  0.44511508  0.32209787  0.37833647    -0.20100
F879        F  0.45967333  0.29789912  0.43564879    -0.20500
F880        F  0.41510456  0.34201535  0.42980980    -0.23100
C881        C  0.55037172  0.37491049  0.25329480    -0.06000
C882        C  0.57072992  0.34083766  0.24929539     0.00000
C883        C  0.60938256  0.34228736  0.23832345    -0.08600
C884        C  0.62690347  0.37809810  0.23412161    -0.06000
C885        C  0.60693066  0.41182364  0.24096107    -0.00100
C886        C  0.56797851  0.41041746  0.24991781    -0.08500
C887        C  0.54552919  0.44630316  0.25679820     0.61900
H888        H  0.52063919  0.37344606  0.26120157     0.12500
H889        H  0.65682686  0.38007765  0.22705982     0.12600
C890        C  0.63223155  0.30652499  0.23275888     0.62100
F891        F  0.50818136  0.43869156  0.26667369    -0.23100
F892        F  0.54552322  0.46780206  0.22420501    -0.20400
F893        F  0.56190813  0.46692095  0.28576273    -0.20100
F894        F  0.61585680  0.28508760  0.20443865    -0.20100
F895        F  0.63277548  0.28589192  0.26597515    -0.20500
F896        F  0.66943235  0.31432180  0.22242002    -0.23100
C897        C  0.43736753  0.35806235  0.23498345    -0.06000
C898        C  0.42309933  0.33224816  0.26184751     0.00000
C899        C  0.38866511  0.34089629  0.28077398    -0.08600
C900        C  0.37176342  0.37634527  0.27456602    -0.06000
C901        C  0.38705796  0.40320888  0.24932496    -0.00100
C902        C  0.42002549  0.39345661  0.22827000    -0.08500
C903        C  0.43809710  0.42069541  0.20028028     0.61900
H904        H  0.46361701  0.35108551  0.22061478     0.12500
H905        H  0.34587515  0.38305680  0.28980219     0.12600
C906        C  0.36796688  0.31411281  0.30740669     0.62100
F907        F  0.47247568  0.40743289  0.18666017    -0.23100
F908        F  0.44482918  0.45509829  0.21757464    -0.20400
F909        F  0.41412083  0.42582121  0.16984081    -0.20100
F910        F  0.33080688  0.30974320  0.29539410    -0.20100
F911        F  0.36763413  0.32966418  0.34320548    -0.20500
F912        F  0.38393352  0.27848117  0.30909177    -0.23100
C913        C  0.63543395  0.88703009  0.79659708    -0.06000
C914        C  0.63765168  0.92049014  0.77489917     0.00000
C915        C  0.61138742  0.92604297  0.74521394    -0.08600
C916        C  0.58422105  0.89763320  0.73811939    -0.06000
C917        C  0.58183225  0.86418901  0.75981844    -0.00100
C918        C  0.60776556  0.85884816  0.78987874    -0.08500
C919        C  0.60659936  0.82375137  0.81466754     0.61900
H920        H  0.65537971  0.88342727  0.81956843     0.12500
H921        H  0.56407597  0.90162437  0.71540650     0.12600
C922        C  0.61099206  0.96215806  0.72180872     0.62100
F923        F  0.63661409  0.82281342  0.83987720    -0.23100
F924        F  0.60858214  0.79161727  0.79249379    -0.20400
F925        F  0.57321964  0.82318744  0.83535447    -0.20100
F926        F  0.64392782  0.96459099  0.70056951    -0.20100
F927        F  0.60838789  0.99336986  0.74523739    -0.20500
F928        F  0.58046909  0.96320202  0.69722034    -0.23100
C929        C  0.64926845  0.11980101  0.75826198    -0.06000
C930        C  0.63731795  0.09172355  0.78399325     0.00000
C931        C  0.60054803  0.09549510  0.80113226    -0.08600
C932        C  0.57727355  0.12611481  0.79041084    -0.06000
C933        C  0.58851594  0.15236109  0.76294659    -0.00100
C934        C  0.62552565  0.14984110  0.74723675    -0.08500
C935        C  0.64019117  0.17893693  0.71911708     0.61900
H936        H  0.67730464  0.11764586  0.74584418     0.12500
H937        H  0.54881628  0.12861864  0.80182022     0.12600
C938        C  0.58452594  0.06716411  0.82957961     0.62100
F939        F  0.67897290  0.17572660  0.71329027    -0.23100
F940        F  0.63322736  0.21491894  0.73266246    -0.20400
F941        F  0.62235637  0.17424740  0.68469828    -0.20100
F942        F  0.54813271  0.07643740  0.84118760    -0.20100
F943        F  0.60708866  0.06631006  0.86149294    -0.20500
F944        F  0.58268640  0.03151205  0.81350159    -0.23100
C945        C  0.72438343  0.41123855  0.11407277    -0.06000
C946        C  0.74795909  0.41652262  0.14579088     0.00000
C947        C  0.78073785  0.39363360  0.14989189    -0.08600
C948        C  0.78824471  0.36612070  0.12218428    -0.06000
C949        C  0.76491269  0.36135949  0.09030637    -0.00100
C950        C  0.73246144  0.38445783  0.08595586    -0.08500
C951        C  0.70749636  0.38241897  0.05104426     0.61900
H952        H  0.69970255  0.42914635  0.11087109     0.12500
H953        H  0.81320067  0.34844971  0.12474313     0.12600
C954        C  0.80778656  0.39781678  0.18302239     0.62100
F955        F  0.67980574  0.41016624  0.05096054    -0.23100
F956        F  0.68935190  0.34764062  0.04956843    -0.20400
F957        F  0.72959357  0.38741867  0.01905748    -0.20100
F958        F  0.78787795  0.39470918  0.21659222    -0.20100
F959        F  0.82580365  0.43266389  0.18129830    -0.20500
F960        F  0.83565276  0.37023048  0.18289252    -0.23100
C961        C  0.72018220  0.39511937  0.88549526    -0.06000
C962        C  0.74928833  0.41369200  0.86522645     0.00000
C963        C  0.78749684  0.40235951  0.87119383    -0.08600
C964        C  0.79490188  0.37481115  0.89906409    -0.06000
C965        C  0.76559802  0.35646348  0.91923423    -0.00100
C966        C  0.72739028  0.36489844  0.91032317    -0.08500
C967        C  0.69430659  0.34230262  0.92648741     0.61900
H968        H  0.69128406  0.40457652  0.88185641     0.12500
H969        H  0.82398786  0.36720247  0.90540861     0.12600
C970        C  0.82054427  0.41976680  0.84951122     0.62100
F971        F  0.65961201  0.35557347  0.91381760    -0.23100
F972        F  0.69434552  0.34421182  0.96541822    -0.20400
F973        F  0.69737056  0.30489996  0.91532624    -0.20100
F974        F  0.82020870  0.45867382  0.85321124    -0.20100
F975        F  0.81778571  0.41029195  0.81174584    -0.20500
F976        F  0.85530044  0.40698479  0.86252322    -0.23100
C977        C  0.78241665  0.09467007  0.92671956    -0.06000
C978        C  0.74515858  0.09094404  0.91306566     0.00000
C979        C  0.72095500  0.12321918  0.91360044    -0.08600
C980        C  0.73579653  0.15791601  0.92669339    -0.06000
C981        C  0.77338481  0.16156732  0.93950164    -0.00100
C982        C  0.79710333  0.12895315  0.94013905    -0.08500
C983        C  0.83754441  0.12902599  0.95562470     0.61900
H984        H  0.80067488  0.07013777  0.92652027     0.12500
H985        H  0.71791081  0.18278088  0.92714354     0.12600
C986        C  0.67977006  0.12179734  0.90072272     0.62100
F987        F  0.85348666  0.09323019  0.95593089    -0.23100
F988        F  0.83775541  0.14198171  0.99239511    -0.20400
F989        F  0.86056132  0.15168345  0.93344528    -0.20100
F990        F  0.66032150  0.09409172  0.92064203    -0.20100
F991        F  0.67820658  0.11423549  0.86246934    -0.20500
F992        F  0.66120556  0.15576543  0.90678608    -0.23100
C993        C  0.87797577  0.76491411  0.65400968    -0.06000
C994        C  0.91633432  0.76559573  0.64286921     0.00000
C995        C  0.92593783  0.75901813  0.60469379    -0.08600
C996        C  0.89680373  0.75076705  0.57895282    -0.06000
C997        C  0.85834961  0.74981530  0.58979520    -0.00100
C998        C  0.84856742  0.75700409  0.62797308    -0.08500
C999        C  0.80758952  0.75556181  0.64123990     0.61900
H1000       H  0.87124856  0.77122591  0.68319277     0.12500
H1001       H  0.90390272  0.74494337  0.54976343     0.12600
C1002       C  0.96681711  0.76168634  0.59109631     0.62100
F1003       F  0.80463392  0.76065329  0.67990043    -0.23100
F1004       F  0.79175186  0.72079488  0.63242619    -0.20400
F1005       F  0.78707546  0.78383561  0.62369065    -0.20100
F1006       F  0.98912514  0.73650676  0.61103209    -0.20100
F1007       F  0.98029348  0.79805764  0.59668461    -0.20500
F1008       F  0.97020175  0.75336468  0.55303228    -0.23100
C1009       C  0.10521977  0.74065929  0.64861128    -0.06000
C1010       C  0.08712024  0.77593814  0.64463261     0.00000
C1011       C  0.10004517  0.80109050  0.61549339    -0.08600
C1012       C  0.12821932  0.78854659  0.59026270    -0.06000
C1013       C  0.14391172  0.75240929  0.59284198    -0.00100
C1014       C  0.13353425  0.72848012  0.62329830    -0.08500
C1015       C  0.15254507  0.69043578  0.62936116     0.61900
H1016       H  0.09620672  0.72188404  0.67111563     0.12500
H1017       H  0.13724727  0.80643841  0.56702303     0.12600
C1018       C  0.08477426  0.84099592  0.61007801     0.62100
F1019       F  0.14321125  0.67484215  0.66406628    -0.23100
F1020       F  0.19162983  0.69478410  0.62804157    -0.20400
F1021       F  0.14114143  0.66535677  0.60165565    -0.20100
F1022       F  0.08647820  0.86061959  0.64366414    -0.20100
F1023       F  0.04768421  0.83955008  0.59743403    -0.20500
F1024       F  0.10569733  0.86141653  0.58380439    -0.23100
C1025       C  0.85984361  0.95785781  0.74226394    -0.06000
C1026       C  0.82714107  0.93736118  0.75238690     0.00000
C1027       C  0.82791444  0.89743366  0.75283413    -0.08600
C1028       C  0.86315845  0.87933648  0.74807926    -0.06000
C1029       C  0.89663963  0.90017443  0.74124154    -0.00100
C1030       C  0.89470933  0.93983825  0.73592902    -0.08500
C1031       C  0.92956680  0.96329656  0.72590949     0.61900
H1032       H  0.85828387  0.98850917  0.74173011     0.12500
H1033       H  0.86499002  0.84881616  0.75024045     0.12600
C1034       C  0.79183913  0.87448151  0.75852856     0.62100
F1035       F  0.92147455  0.00158695  0.72407745    -0.23100
F1036       F  0.94329529  0.95238004  0.69098455    -0.20400
F1037       F  0.95740136  0.95810184  0.75287284    -0.20100
F1038       F  0.76693973  0.88205533  0.72935846    -0.20100
F1039       F  0.77470143  0.88404809  0.79223890    -0.20500
F1040       F  0.79892330  0.83593597  0.75890404    -0.23100
C1041       C  0.41700223  0.10495024  0.73261983    -0.06000
C1042       C  0.41621841  0.14079883  0.75031795     0.00000
C1043       C  0.38436731  0.14989252  0.77358894    -0.08600
C1044       C  0.35654979  0.12178018  0.78017068    -0.06000
C1045       C  0.35844258  0.08585443  0.76342135    -0.00100
C1046       C  0.38851944  0.07750685  0.73837425    -0.08500
C1047       C  0.39129497  0.03933541  0.71876531     0.61900
H1048       H  0.44054954  0.09809992  0.71421708     0.12500
H1049       H  0.33306265  0.12736902  0.79916996     0.12600
C1050       C  0.37895030  0.18866971  0.79150828     0.62100
F1051       F  0.42380610  0.03648110  0.69688115    -0.23100
F1052       F  0.36031760  0.03431925  0.69529949    -0.20400
F1053       F  0.39202563  0.01060101  0.74531633    -0.20100
F1054       F  0.37971145  0.21645167  0.76397579    -0.20100
F1055       F  0.40732312  0.19540442  0.81764272    -0.20500
F1056       F  0.34441422  0.19147354  0.81012041    -0.23100
C1057       C  0.38117480  0.90335205  0.79956081    -0.06000
C1058       C  0.35619603  0.91469044  0.77051909     0.00000
C1059       C  0.35883845  0.89628371  0.73487866    -0.08600
C1060       C  0.38629919  0.86756292  0.73002278    -0.06000
C1061       C  0.41172962  0.85725521  0.75887251    -0.00100
C1062       C  0.40940167  0.87572175  0.79414803    -0.08500
C1063       C  0.43826768  0.86825484  0.82507049     0.61900
H1064       H  0.37929064  0.91727304  0.82668217     0.12500
H1065       H  0.38905450  0.85356525  0.70295917     0.12600
C1066       C  0.33449327  0.90785551  0.70142422     0.62100
F1067       F  0.43286146  0.89156116  0.85602321    -0.23100
F1068       F  0.47456567  0.87479428  0.81133710    -0.20400
F1069       F  0.43529289  0.83113797  0.83716701    -0.20100
F1070       F  0.33898025  0.94619321  0.69450722    -0.20100
F1071       F  0.29670093  0.89993467  0.70887978    -0.20500
F1072       F  0.34445683  0.88866928  0.66880194    -0.23100
C1073       C  0.12580291  0.94323189  0.79264212    -0.06000
C1074       C  0.15726922  0.93441944  0.76968016     0.00000
C1075       C  0.15144453  0.91354241  0.73614555    -0.08600
C1076       C  0.11453212  0.90051862  0.72804156    -0.06000
C1077       C  0.08292696  0.90912216  0.75100380    -0.00100
C1078       C  0.08855573  0.93197132  0.78359489    -0.08500
C1079       C  0.05591941  0.94592247  0.80829831     0.61900
H1080       H  0.13051032  0.96034728  0.81756360     0.12500
H1081       H  0.11032722  0.88296994  0.70354268     0.12600
C1082       C  0.18378179  0.90445702  0.70919633     0.62100
F1083       F  0.06787713  0.97268429  0.83430484    -0.23100
F1084       F  0.03982213  0.91635142  0.82826497    -0.20400
F1085       F  0.02839873  0.96249408  0.78606964    -0.20100
F1086       F  0.21342324  0.88803958  0.72878127    -0.20100
F1087       F  0.19635899  0.93731377  0.69186381    -0.20500
F1088       F  0.17261306  0.87955069  0.68109311    -0.23100
C1089       C  0.78980185  0.60522220  0.91835643    -0.06000
C1090       C  0.76850943  0.63869705  0.92132278     0.00000
C1091       C  0.73890176  0.64558613  0.89515031    -0.08600
C1092       C  0.73107410  0.61787005  0.86764647    -0.06000
C1093       C  0.75202530  0.58410970  0.86525780    -0.00100
C1094       C  0.78220836  0.57777737  0.89078726    -0.08500
C1095       C  0.80534258  0.54163082  0.89014930     0.61900
H1096       H  0.81240749  0.60037410  0.93847476     0.12500
H1097       H  0.70792176  0.62204419  0.84796845     0.12600
C1098       C  0.71629047  0.68210341  0.89541760     0.62100
F1099       F  0.83153537  0.54028455  0.91925785    -0.23100
F1100       F  0.82512628  0.53930118  0.85646701    -0.20400
F1101       F  0.78137250  0.51071538  0.89390407    -0.20100
F1102       F  0.74083899  0.71270717  0.89370637    -0.20100
F1103       F  0.69468588  0.68426744  0.92797716    -0.20500
F1104       F  0.69186384  0.68443497  0.86488929    -0.23100
C1105       C  0.75603461  0.57219742  0.10753110    -0.06000
C1106       C  0.75471195  0.58322700  0.14557622     0.00000
C1107       C  0.75895456  0.62203054  0.15497692    -0.08600
C1108       C  0.76565765  0.64841805  0.12571541    -0.06000
C1109       C  0.76758785  0.63702903  0.08778658    -0.00100
C1110       C  0.76195965  0.59841277  0.07832631    -0.08500
C1111       C  0.76044023  0.58505867  0.03747300     0.61900
H1112       H  0.75178975  0.54255172  0.10079459     0.12500
H1113       H  0.77003688  0.67808143  0.13225245     0.12600
C1114       C  0.75536511  0.63552481  0.19542488     0.62100
F1115       F  0.74895759  0.54760145  0.03474289    -0.23100
F1116       F  0.79589452  0.58808075  0.02086566    -0.20400
F1117       F  0.73476928  0.60682973  0.01750931    -0.20100
F1118       F  0.78450383  0.62046978  0.21670190    -0.20100
F1119       F  0.72079317  0.62397641  0.21023997    -0.20500
F1120       F  0.75737998  0.67460151  0.19805043    -0.23100
C1121       C  0.87912865  0.73839140  0.87527623    -0.06000
C1122       C  0.90193499  0.73350855  0.90746669     0.00000
C1123       C  0.94173699  0.73006135  0.90339572    -0.08600
C1124       C  0.95771511  0.73596955  0.86741621    -0.06000
C1125       C  0.93504562  0.74467586  0.83591588    -0.00100
C1126       C  0.89515968  0.74408790  0.83930079    -0.08500
C1127       C  0.87013764  0.75183914  0.80542302     0.61900
H1128       H  0.84856504  0.73950046  0.87888815     0.12500
H1129       H  0.98836485  0.73658163  0.86406680     0.12600
C1130       C  0.96716554  0.72238727  0.93710826     0.62100
F1131       F  0.83193847  0.74842463  0.81419863    -0.23100
F1132       F  0.87839660  0.72622040  0.77707967    -0.20400
F1133       F  0.87675264  0.78816470  0.79229395    -0.20100
F1134       F  0.95813220  0.68747446  0.95249482    -0.20100
F1135       F  0.96205926  0.75014576  0.96413944    -0.20500
F1136       F  0.00524597  0.72198798  0.92716612    -0.23100
C1137       C  0.72289316  0.85142859  0.94783797    -0.06000
C1138       C  0.75022934  0.82741205  0.93180285     0.00000
C1139       C  0.76884888  0.83823812  0.89828635    -0.08600
C1140       C  0.76275129  0.87457142  0.88407133    -0.06000
C1141       C  0.73800868  0.90041693  0.90160677    -0.00100
C1142       C  0.71579885  0.88785293  0.93286742    -0.08500
C1143       C  0.68607829  0.91277712  0.95136684     0.61900
H1144       H  0.70913136  0.84244512  0.97374903     0.12500
H1145       H  0.77926937  0.88362489  0.85999931     0.12600
C1146       C  0.79727932  0.81246136  0.87908472     0.62100
F1147       F  0.66891082  0.89505207  0.98188262    -0.23100
F1148       F  0.65796556  0.92127051  0.92548931    -0.20400
F1149       F  0.70271542  0.94589304  0.96418310    -0.20100
F1150       F  0.78201611  0.77650753  0.87569888    -0.20100
F1151       F  0.83015502  0.81091629  0.90019334    -0.20500
F1152       F  0.80669418  0.82515285  0.84327024    -0.23100
C1153       C  0.11700901  0.71966953  0.40944227    -0.06000
C1154       C  0.14274291  0.74790459  0.42176821     0.00000
C1155       C  0.14105430  0.78426911  0.40459885    -0.08600
C1156       C  0.11441411  0.79028249  0.37555449    -0.06000
C1157       C  0.08801386  0.76234086  0.36418049    -0.00100
C1158       C  0.08925914  0.72623751  0.38171634    -0.08500
C1159       C  0.06084400  0.69489048  0.37268705     0.61900
H1160       H  0.11796089  0.69201440  0.42251268     0.12500
H1161       H  0.11335873  0.81774743  0.36202816     0.12600
C1162       C  0.16624105  0.81713320  0.41689670     0.62100
F1163       F  0.06572091  0.66332612  0.39537037    -0.23100
F1164       F  0.06525882  0.68347062  0.33559629    -0.20400
F1165       F  0.02418721  0.70776278  0.37843134    -0.20100
F1166       F  0.20409529  0.80749057  0.41294649    -0.20100
F1167       F  0.15857622  0.82614450  0.45415135    -0.20500
F1168       F  0.16009015  0.84942072  0.39556446    -0.23100
C1169       C  0.90881938  0.78827817  0.39658654    -0.06000
C1170       C  0.91684148  0.76268825  0.36692372     0.00000
C1171       C  0.89527642  0.72841875  0.36510620    -0.08600
C1172       C  0.86688783  0.72170564  0.39249457    -0.06000
C1173       C  0.85974322  0.74678242  0.42246551    -0.00100
C1174       C  0.88125536  0.78071855  0.42471194    -0.08500
C1175       C  0.87666256  0.80801577  0.45753735     0.61900
H1176       H  0.92493586  0.81437825  0.39818949     0.12500
H1177       H  0.85026783  0.69586321  0.39124306     0.12600
C1178       C  0.90209739  0.69822848  0.33525008     0.62100
F1179       F  0.90263126  0.83755794  0.45590908    -0.23100
F1180       F  0.88219263  0.78906105  0.49126362    -0.20400
F1181       F  0.84061552  0.82341352  0.45706397    -0.20100
F1182       F  0.93950000  0.68637455  0.33646206    -0.20100
F1183       F  0.89381549  0.71266854  0.29994027    -0.20500
F1184       F  0.87951922  0.66650264  0.34071301    -0.23100
C1185       C  0.94163260  0.78115453  0.13907968    -0.06000
C1186       C  0.93035460  0.75795428  0.16938510     0.00000
C1187       C  0.90882046  0.72495937  0.16226611    -0.08600
C1188       C  0.89670158  0.71799266  0.12505460    -0.06000
C1189       C  0.90654946  0.74224162  0.09479202    -0.07300
C1190       C  0.93103458  0.77356447  0.10174690    -0.08500
C1191       C  0.94655703  0.79906056  0.07055810     0.61900
H1192       H  0.95948520  0.80553110  0.14489210     0.12500
H1193       H  0.87857154  0.69377534  0.11960349     0.12600
C1194       C  0.89794661  0.69787619  0.19375742     0.62100
F1195       F  0.97670730  0.82107125  0.08301459    -0.23100
F1196       F  0.91843505  0.82320829  0.05800273    -0.20400
F1197       F  0.95971318  0.77742205  0.04079004    -0.20100
F1198       F  0.88069994  0.71760420  0.22275740    -0.20100
F1199       F  0.93014936  0.68013206  0.20723739    -0.20500
F1200       F  0.87288422  0.67015280  0.18157401    -0.23100
C1201       C  0.89417229  0.26792642  0.36119298    -0.06000
C1202       C  0.91311565  0.23349786  0.36789539     0.00000
C1203       C  0.90188421  0.21123008  0.39985914    -0.08600
C1204       C  0.87479695  0.22597208  0.42501104    -0.06000
C1205       C  0.85751139  0.26111506  0.41932395    -0.00100
C1206       C  0.86589207  0.28178072  0.38587850    -0.08500
C1207       C  0.84428748  0.31746919  0.37539786     0.61900
H1208       H  0.90172148  0.28414555  0.33630138     0.12500
H1209       H  0.86739791  0.21027990  0.45026523     0.12600
C1210       C  0.91817248  0.17223166  0.40855132     0.62100
F1211       F  0.85101547  0.32807682  0.33831947    -0.23100
F1212       F  0.85525870  0.34714756  0.39840710    -0.20400
F1213       F  0.80562623  0.31122918  0.37934013    -0.20100
F1214       F  0.95720687  0.17450251  0.41236692    -0.20100
F1215       F  0.90885961  0.14725179  0.37991041    -0.20500
F1216       F  0.90384985  0.15717939  0.44181893    -0.23100
C1217       C  0.12138094  0.22820525  0.36373471    -0.06000
C1218       C  0.08356320  0.23788485  0.37149931     0.00000
C1219       C  0.07396416  0.25299265  0.40709119    -0.08600
C1220       C  0.10269975  0.25755550  0.43415114    -0.06000
C1221       C  0.14076886  0.24736431  0.42703027    -0.00100
C1222       C  0.15023807  0.23180091  0.39119814    -0.08500
C1223       C  0.19016429  0.21871916  0.38178198     0.61900
H1224       H  0.12789739  0.21686801  0.33610987     0.12500
H1225       H  0.09540553  0.26922746  0.46146829     0.12600
C1226       C  0.03349222  0.26478078  0.41612236     0.62100
F1227       F  0.19313842  0.20606080  0.34489970    -0.23100
F1228       F  0.20002467  0.18914135  0.40537774    -0.20400
F1229       F  0.21561492  0.24820919  0.38631708    -0.20100
F1230       F  0.00987724  0.23344083  0.41573627    -0.20100
F1231       F  0.02111022  0.29051627  0.38942246    -0.20500
F1232       F  0.03064534  0.28159562  0.45132075    -0.23100
C1233       C  0.88506709  0.27410939  0.13537119    -0.06000
C1234       C  0.90668188  0.27147680  0.10200268     0.00000
C1235       C  0.94594666  0.26413659  0.10399998    -0.08600
C1236       C  0.96203617  0.25727769  0.13954780    -0.06000
C1237       C  0.93993567  0.25662186  0.17278078    -0.00100
C1238       C  0.90119758  0.26685867  0.17110290    -0.08500
C1239       C  0.87683603  0.26818608  0.20640939     0.61900
H1240       H  0.85494792  0.27989317  0.13297362     0.12500
H1241       H  0.99186914  0.25003144  0.14146144     0.12600
C1242       C  0.97021253  0.26188578  0.06855955     0.62100
F1243       F  0.83966568  0.27802385  0.19836823    -0.23100
F1244       F  0.89150359  0.29482384  0.23106741    -0.20400
F1245       F  0.87650354  0.23308748  0.22377980    -0.20100
F1246       F  0.97023336  0.29663443  0.05052774    -0.20100
F1247       F  0.95574646  0.23471396  0.04434545    -0.20500
F1248       F  0.00746060  0.25238567  0.07664377    -0.23100
C1249       C  0.88042424  0.24001979  0.65400856    -0.06000
C1250       C  0.91835578  0.25186786  0.64957710     0.00000
C1251       C  0.92879425  0.27236717  0.61679264    -0.08600
C1252       C  0.90133839  0.27827545  0.58848375    -0.06000
C1253       C  0.86344284  0.26545175  0.59208987    -0.00100
C1254       C  0.85237871  0.24756183  0.62646404    -0.08500
C1255       C  0.81118377  0.23769075  0.63498512     0.61900
H1256       H  0.87298171  0.22444379  0.67935807     0.12500
H1257       H  0.90962253  0.29281803  0.56282048     0.12600
C1258       C  0.96912529  0.28689598  0.61114596     0.62100
F1259       F  0.80631895  0.22589331  0.67198573    -0.23100
F1260       F  0.79906837  0.20874277  0.61162138    -0.20400
F1261       F  0.78862619  0.26924713  0.62958304    -0.20100
F1262       F  0.99429631  0.25695430  0.61177135    -0.20100
F1263       F  0.97826558  0.31206087  0.63965258    -0.20500
F1264       F  0.97350462  0.30558858  0.57701984    -0.23100
C1265       C  0.10124739  0.21181148  0.62290756    -0.06000
C1266       C  0.09222005  0.23989590  0.64988275     0.00000
C1267       C  0.11608305  0.27253770  0.65204581    -0.08600
C1268       C  0.14583307  0.27666201  0.62559103    -0.06000
C1269       C  0.15265396  0.25004640  0.59680483    -0.00100
C1270       C  0.13083384  0.21624817  0.59628362    -0.08500
C1271       C  0.13752964  0.18554488  0.56700673     0.61900
H1272       H  0.08427494  0.18620683  0.62218368     0.12500
H1273       H  0.16339688  0.30191338  0.62620355     0.12600
C1274       C  0.11005673  0.30379238  0.68095673     0.62100
F1275       F  0.11253764  0.15542834  0.57118358    -0.23100
F1276       F  0.17402320  0.17162270  0.57067945    -0.20400
F1277       F  0.13273160  0.20020121  0.53109436    -0.20100
F1278       F  0.11452762  0.28944117  0.71699402    -0.20100
F1279       F  0.07401581  0.31876565  0.67701796    -0.20500
F1280       F  0.13589226  0.33320460  0.67668622    -0.23100
C1281       C  0.87065685  0.06370749  0.79555491    -0.06000
C1282       C  0.83769563  0.07663863  0.77721986     0.00000
C1283       C  0.84146803  0.10414096  0.74829024    -0.08600
C1284       C  0.87815010  0.11837329  0.73948945    -0.06000
C1285       C  0.91092986  0.10599065  0.75859598    -0.00100
C1286       C  0.90718656  0.07755298  0.78670320    -0.08500
C1287       C  0.94160130  0.06045249  0.80619666     0.61900
H1288       H  0.86756418  0.04194124  0.81692421     0.12500
H1289       H  0.88138648  0.14036390  0.71836845     0.12600
C1290       C  0.80692686  0.11956204  0.72804206     0.62100
F1291       F  0.93175364  0.02978682  0.82863170    -0.23100
F1292       F  0.95910793  0.08690618  0.82909921    -0.20400
F1293       F  0.96714344  0.04797687  0.77931354    -0.20100
F1294       F  0.78115550  0.13327240  0.75417052    -0.20100
F1295       F  0.78996413  0.09117060  0.70709188    -0.20500
F1296       F  0.81643949  0.14880478  0.70368725    -0.23100
C1297       C  0.12920260  0.04743938  0.75110057    -0.06000
C1298       C  0.16394401  0.06707146  0.74749184     0.00000
C1299       C  0.16441882  0.10250440  0.72857132    -0.08600
C1300       C  0.12918617  0.11945503  0.71964207    -0.06000
C1301       C  0.09449420  0.10119347  0.72776934    -0.00100
C1302       C  0.09461943  0.06354121  0.74061019    -0.08500
C1303       C  0.05881954  0.04011740  0.74547916     0.61900
H1304       H  0.12885492  0.01930898  0.76338032     0.12500
H1305       H  0.12838984  0.14818000  0.70888974     0.12600
C1306       C  0.20117765  0.12316681  0.71960816     0.62100
F1307       F  0.06436573  0.00455445  0.73008716    -0.23100
F1308       F  0.02780674  0.05596281  0.72757867    -0.20400
F1309       F  0.05091714  0.03657343  0.78355421    -0.20100
F1310       F  0.22441193  0.10034026  0.69794132    -0.20100
F1311       F  0.21963659  0.13253156  0.75261235    -0.20500
F1312       F  0.19480568  0.15622485  0.69957010    -0.23100
C1313       C  0.89537129  0.23457424  0.89471983    -0.06000
C1314       C  0.90561339  0.26777143  0.91388405     0.00000
C1315       C  0.92951659  0.29467054  0.89578219    -0.08600
C1316       C  0.94442658  0.28585003  0.85976720    -0.06000
C1317       C  0.93563371  0.25147086  0.84174110    -0.00100
C1318       C  0.90964357  0.22601961  0.85883032    -0.08500
C1319       C  0.89865172  0.18867828  0.84048938     0.61900
H1320       H  0.87611808  0.21492910  0.90832504     0.12500
H1321       H  0.96466214  0.30476928  0.84633259     0.12600
C1322       C  0.94056333  0.33148165  0.91503998     0.62100
F1323       F  0.86459723  0.17497269  0.85473406    -0.23100
F1324       F  0.92654585  0.16215946  0.84745030    -0.20400
F1325       F  0.89434251  0.19317988  0.80191607    -0.20100
F1326       F  0.95409327  0.32426014  0.95098757    -0.20100
F1327       F  0.90919471  0.35478574  0.91751164    -0.20500
F1328       F  0.96866932  0.35063065  0.89525583    -0.23100
C1329       C  0.28159667  0.59978723  0.12332710    -0.06000
C1330       C  0.25225269  0.58592189  0.14687766     0.00000
C1331       C  0.21497360  0.60020971  0.14169027    -0.08600
C1332       C  0.20856618  0.62677050  0.11261162    -0.06000
C1333       C  0.23759317  0.63958715  0.08803558    -0.00100
C1334       C  0.27514940  0.62622312  0.09405465    -0.08500
C1335       C  0.30836787  0.63874977  0.06947476     0.61900
H1336       H  0.31010121  0.58935600  0.12791604     0.12500
H1337       H  0.18015296  0.63770534  0.10875301     0.12600
C1338       C  0.18162370  0.58718883  0.16586220     0.62100
F1339       F  0.34176014  0.62054660  0.07909254    -0.23100
F1340       F  0.31439565  0.67724597  0.07370834    -0.20400
F1341       F  0.30079489  0.63057980  0.03203465    -0.20100
F1342       F  0.18676302  0.59925205  0.20263570    -0.20100
F1343       F  0.17871883  0.54814375  0.16510459    -0.20500
F1344       F  0.14742118  0.60168092  0.15318358    -0.23100
C1345       C  0.28700937  0.61201135  0.87370554    -0.06000
C1346       C  0.25829390  0.58878926  0.85801345     0.00000
C1347       C  0.21982380  0.59670950  0.86732785    -0.08600
C1348       C  0.21239412  0.62321963  0.89596630    -0.06000
C1349       C  0.24123426  0.64466406  0.91344050    -0.00100
C1350       C  0.27920348  0.64040653  0.90056665    -0.08500
C1351       C  0.31165358  0.66472354  0.91540860     0.61900
H1352       H  0.31615126  0.60751876  0.86507003     0.12500
H1353       H  0.18339859  0.62704499  0.90533275     0.12600
C1354       C  0.18633891  0.57794697  0.84753200     0.62100
F1355       F  0.34634626  0.65450155  0.90002887    -0.23100
F1356       F  0.31428881  0.66102788  0.95418964    -0.20400
F1357       F  0.30535149  0.70223361  0.90612643    -0.20100
F1358       F  0.18516041  0.53972521  0.85600450    -0.20100
F1359       F  0.18963611  0.58305559  0.80889785    -0.20500
F1360       F  0.15194394  0.59340741  0.85845418    -0.23100
C1361       C  0.08345314  0.78110871  0.90874870    -0.06000
C1362       C  0.10065402  0.74537213  0.91090974     0.00000
C1363       C  0.10317236  0.72337116  0.87719068    -0.08600
C1364       C  0.08752056  0.73781440  0.84342623    -0.06000
C1365       C  0.07120502  0.77395645  0.84137310    -0.00100
C1366       C  0.06979207  0.79637402  0.87483863    -0.08500
C1367       C  0.05467570  0.83666071  0.87554077     0.61900
H1368       H  0.08168397  0.79801886  0.93410685     0.12500
H1369       H  0.08842728  0.72103043  0.81788164     0.12600
C1370       C  0.12329222  0.68552400  0.87582962     0.62100
F1371       F  0.05568547  0.85256589  0.91126009    -0.23100
F1372       F  0.01727948  0.83734940  0.86364947    -0.20400
F1373       F  0.07710070  0.85896318  0.85234941    -0.20100
F1374       F  0.10661643  0.66055530  0.90108103    -0.20100
F1375       F  0.16115680  0.69092932  0.88465955    -0.20500
F1376       F  0.12167798  0.66910762  0.84036187    -0.23100
C1377       C  0.04317628  0.73246209  0.13637298    -0.06000
C1378       C  0.06436409  0.73938593  0.16941421     0.00000
C1379       C  0.10437408  0.73618734  0.16810392    -0.08600
C1380       C  0.12206982  0.73137082  0.13260246    -0.06000
C1381       C  0.10082255  0.72769143  0.09913261    -0.00100
C1382       C  0.06079782  0.72579758  0.10126250    -0.08500
C1383       C  0.03696249  0.71843752  0.06635608     0.61900
H1384       H  0.01247988  0.73409378  0.13800838     0.12500
H1385       H  0.15279026  0.73132870  0.13052348     0.12600
C1386       C  0.12805974  0.73815308  0.20379035     0.62100
F1387       F  0.99852444  0.71761032  0.07463825    -0.23100
F1388       F  0.04654960  0.68372404  0.05109911    -0.20400
F1389       F  0.04343990  0.74650628  0.03980133    -0.20100
F1390       F  0.11810115  0.70833056  0.22719123    -0.20100
F1391       F  0.12179028  0.77182261  0.22260409    -0.20500
F1392       F  0.16655004  0.73559030  0.19607096    -0.23100
C1393       C  0.27245897  0.85179299  0.93398264    -0.06000
C1394       C  0.23559972  0.83703748  0.92825479     0.00000
C1395       C  0.21003896  0.85790968  0.90519612    -0.08600
C1396       C  0.22041134  0.89455242  0.89344391    -0.06000
C1397       C  0.25638022  0.91019654  0.90088369    -0.00100
C1398       C  0.28370060  0.88761495  0.91978810    -0.08500
C1399       C  0.32413735  0.90142987  0.92586873     0.61900
H1400       H  0.29221742  0.83555804  0.95079998     0.12500
H1401       H  0.20010399  0.91126248  0.87775223     0.12600
C1402       C  0.17153869  0.84259170  0.89292848     0.62100
F1403       F  0.34473532  0.87689504  0.94835113    -0.23100
F1404       F  0.32383656  0.93653062  0.94318227    -0.20400
F1405       F  0.34262924  0.90416647  0.89150008    -0.20100
F1406       F  0.14511787  0.84846149  0.92125604    -0.20100
F1407       F  0.15888678  0.86063481  0.86058755    -0.20500
F1408       F  0.17380233  0.80433826  0.88478295    -0.23100
C1409       C  0.27169016  0.41759755  0.90200999    -0.06000
C1410       C  0.25272123  0.41617516  0.86682057     0.00000
C1411       C  0.22667880  0.38584512  0.86046559    -0.08600
C1412       C  0.22008249  0.35932919  0.88976227    -0.06000
C1413       C  0.23892981  0.36142069  0.92470590    -0.00100
C1414       C  0.26537280  0.39098797  0.93091892    -0.08500
C1415       C  0.28583619  0.39555072  0.96846612     0.61900
H1416       H  0.29183076  0.44018772  0.90722354     0.12500
H1417       H  0.19979911  0.33653171  0.88570048     0.12600
C1418       C  0.20612826  0.38078954  0.82318620     0.62100
F1419       F  0.30749192  0.42836021  0.96973811    -0.23100
F1420       F  0.30995798  0.36529093  0.97420021    -0.20400
F1421       F  0.25961462  0.39717110  0.99757626    -0.20100
F1422       F  0.18347128  0.34861278  0.82287082    -0.20100
F1423       F  0.23248008  0.37729953  0.79443966    -0.20500
F1424       F  0.18297883  0.41161179  0.81645845    -0.23100
C1425       C  0.20974046  0.39129212  0.10279850    -0.06000
C1426       C  0.23438437  0.35991805  0.09883297     0.00000
C1427       C  0.26281682  0.35444001  0.12689289    -0.08600
C1428       C  0.26688609  0.38175631  0.15562956    -0.06000
C1429       C  0.24416286  0.41436686  0.15754231    -0.00100
C1430       C  0.21419965  0.41866312  0.13142153    -0.08500
C1431       C  0.18825424  0.45289215  0.13245209     0.61900
H1432       H  0.18716909  0.39509705  0.08248600     0.12500
H1433       H  0.28940249  0.37880990  0.17622985     0.12600
C1434       C  0.28944151  0.32067623  0.12681929     0.62100
F1435       F  0.16143924  0.45201067  0.10389758    -0.23100
F1436       F  0.20956406  0.48562319  0.12820809    -0.20400
F1437       F  0.16907183  0.45388529  0.16655977    -0.20100
F1438       F  0.31141157  0.32101904  0.09439074    -0.20100
F1439       F  0.26845169  0.28756324  0.12869230    -0.20500
F1440       F  0.31392305  0.32097911  0.15740659    -0.23100
C1441       C  0.12314465  0.22525094  0.12578786    -0.06000
C1442       C  0.11137573  0.25807269  0.10685204     0.00000
C1443       C  0.08777482  0.28427302  0.12605690    -0.08600
C1444       C  0.07359072  0.27441296  0.16212185    -0.06000
C1445       C  0.08337552  0.24008704  0.17987459    -0.00100
C1446       C  0.11100628  0.21666043  0.16255269    -0.08500
C1447       C  0.12619195  0.18098994  0.18080576     0.61900
H1448       H  0.14239988  0.20602641  0.11162879     0.12500
H1449       H  0.05302318  0.29258376  0.17575828     0.12600
C1450       C  0.07632542  0.32158989  0.10815094     0.62100
F1451       F  0.16321133  0.17424263  0.16938187    -0.23100
F1452       F  0.10375894  0.15077735  0.16988562    -0.20400
F1453       F  0.12638511  0.18384739  0.21979258    -0.20100
F1454       F  0.06066877  0.31517328  0.07292806    -0.20100
F1455       F  0.10790899  0.34476561  0.10448199    -0.20500
F1456       F  0.04975772  0.34064059  0.12978530    -0.23100
C1457       C  0.13399830  0.25089283  0.88469523    -0.06000
C1458       C  0.10964921  0.25824205  0.91531970     0.00000
C1459       C  0.07032617  0.26287049  0.90902664    -0.08600
C1460       C  0.05646564  0.25874901  0.87195250    -0.06000
C1461       C  0.08057241  0.24917419  0.84171760    -0.00100
C1462       C  0.12004916  0.24604619  0.84784267    -0.08500
C1463       C  0.14715664  0.23781650  0.81560806     0.61900
H1464       H  0.16413475  0.24790666  0.89015508     0.12500
H1465       H  0.02623857  0.26069161  0.86665165     0.12600
C1466       C  0.04303257  0.26960063  0.94152823     0.62100
F1467       F  0.18469473  0.23910747  0.82718875    -0.23100
F1468       F  0.14246246  0.26458499  0.78753117    -0.20400
F1469       F  0.13991704  0.20221172  0.80102079    -0.20100
F1470       F  0.05032065  0.30450434  0.95769518    -0.20100
F1471       F  0.04729658  0.24159616  0.96851386    -0.20500
F1472       F  0.00562703  0.26898390  0.92968282    -0.23100
C1473       C  0.28653124  0.11096215  0.92862930    -0.06000
C1474       C  0.26338128  0.10412533  0.89708250     0.00000
C1475       C  0.24297111  0.13505478  0.88129425    -0.08600
C1476       C  0.24058554  0.16910802  0.90162817    -0.06000
C1477       C  0.26038297  0.17443399  0.93539710    -0.00100
C1478       C  0.28616753  0.14610070  0.94750570    -0.08500
C1479       C  0.31400834  0.15145002  0.97966528     0.61900
H1480       H  0.30443228  0.08844785  0.93926947     0.12500
H1481       H  0.22137158  0.19110882  0.89221922     0.12600
C1482       C  0.22361192  0.13279000  0.84316287     0.62100
F1483       F  0.35054861  0.14687238  0.96597181    -0.23100
F1484       F  0.30749048  0.12442468  0.00715556    -0.20400
F1485       F  0.31183552  0.18689741  0.99592504    -0.20100
F1486       F  0.18832354  0.11580181  0.84696694    -0.20100
F1487       F  0.24572598  0.11233726  0.81818245    -0.20500
F1488       F  0.21871378  0.16847794  0.82780235    -0.23100
C1489       C  0.60977653  0.90538872  0.21427179    -0.06000
C1490       C  0.64047461  0.91209954  0.23918798     0.00000
C1491       C  0.64360510  0.88881820  0.27199920    -0.08600
C1492       C  0.61478559  0.86195175  0.27946919    -0.06000
C1493       C  0.58403964  0.85639695  0.25497831    -0.00100
C1494       C  0.58170463  0.87780133  0.22142377    -0.08500
C1495       C  0.54905856  0.87232688  0.19387891     0.61900
H1496       H  0.60755428  0.92214200  0.18879860     0.12500
H1497       H  0.61582648  0.84489125  0.30488798     0.12600
C1498       C  0.67682587  0.89156882  0.29920960     0.62100
F1499       F  0.55074966  0.89779253  0.16416822    -0.23100
F1500       F  0.51473325  0.87734994  0.21230261    -0.20400
F1501       F  0.55034332  0.83618807  0.17894088    -0.20100
F1502       F  0.67790144  0.92712344  0.31553234    -0.20100
F1503       F  0.71033297  0.88480243  0.27999215    -0.20500
F1504       F  0.67425817  0.86517186  0.32806704    -0.23100
C1505       C  0.64193734  0.11738272  0.22028460    -0.06000
C1506       C  0.64187819  0.08288736  0.24019422     0.00000
C1507       C  0.61445594  0.07655115  0.26877008    -0.08600
C1508       C  0.58840378  0.10541844  0.27683957    -0.06000
C1509       C  0.58832165  0.14015672  0.25719894    -0.00100
C1510       C  0.61558703  0.14629342  0.22824730    -0.08500
C1511       C  0.61766364  0.18323694  0.20650273     0.61900
H1512       H  0.66281598  0.12136032  0.19808466     0.12500
H1513       H  0.56721350  0.10068753  0.29856026     0.12600
C1514       C  0.61143791  0.03893573  0.28957057     0.62100
F1515       F  0.64909943  0.18483173  0.18294091    -0.23100
F1516       F  0.62016752  0.21305333  0.23160756    -0.20400
F1517       F  0.58556567  0.18725224  0.18441665    -0.20100
F1518       F  0.64361500  0.03323469  0.31113933    -0.20100
F1519       F  0.60760594  0.00969812  0.26384941    -0.20500
F1520       F  0.58033530  0.03769914  0.31355820    -0.23100
C1521       C  0.74346300  0.12839546  0.12962451    -0.06000
C1522       C  0.74068560  0.09572243  0.10702896     0.00000
C1523       C  0.74185069  0.09924489  0.06734787    -0.08600
C1524       C  0.74959159  0.13506641  0.05165598    -0.06000
C1525       C  0.75615539  0.16710666  0.07439928    -0.00100
C1526       C  0.75154743  0.16427772  0.11390201    -0.08500
C1527       C  0.75712135  0.19846662  0.13916364     0.61900
H1528       H  0.74066312  0.12525914  0.15990034     0.12500
H1529       H  0.75277099  0.13796157  0.02134898     0.12600
C1530       C  0.73710144  0.06500521  0.04194038     0.62100
F1531       F  0.75116406  0.18968302  0.17682448    -0.23100
F1532       F  0.73169098  0.22645533  0.12913010    -0.20400
F1533       F  0.79379880  0.21221195  0.13521434    -0.20100
F1534       F  0.70221772  0.04808185  0.04864629    -0.20100
F1535       F  0.76567060  0.03927068  0.04919280    -0.20500
F1536       F  0.73876040  0.07470289  0.00409935    -0.23100
C1537       C  0.73423711  0.87471865  0.12185229    -0.06000
C1538       C  0.74279022  0.90812286  0.10165388     0.00000
C1539       C  0.76038863  0.90565752  0.06579534    -0.08600
C1540       C  0.77078556  0.86984755  0.05232872    -0.06000
C1541       C  0.76419622  0.83676150  0.07336265    -0.00100
C1542       C  0.74496947  0.83876889  0.10827192    -0.08500
C1543       C  0.73774851  0.80345401  0.13161271     0.61900
H1544       H  0.72080580  0.87717431  0.14929252     0.12500
H1545       H  0.78482711  0.86738997  0.02517873     0.12600
C1546       C  0.76762668  0.94043243  0.04150498     0.62100
F1547       F  0.71920681  0.81163307  0.16513358    -0.23100
F1548       F  0.77201534  0.78644426  0.14018078    -0.20400
F1549       F  0.71546602  0.77827806  0.11146092    -0.20100
F1550       F  0.79589004  0.96254005  0.05734120    -0.20100
F1551       F  0.73460451  0.96133277  0.03859711    -0.20500
F1552       F  0.77912919  0.93079925  0.00535650    -0.23100
C1553       C  0.87835764  0.88564043  0.27973000    -0.06000
C1554       C  0.91154386  0.90125298  0.26348479     0.00000
C1555       C  0.90841280  0.93261676  0.23873235    -0.08600
C1556       C  0.87212304  0.94547546  0.22906458    -0.06000
C1557       C  0.83895406  0.92858508  0.24343174    -0.00100
C1558       C  0.84181327  0.89881536  0.26997276    -0.08500
C1559       C  0.80661955  0.87976612  0.28599327     0.61900
H1560       H  0.88116414  0.86164097  0.29857506     0.12500
H1561       H  0.86936728  0.96892491  0.20950044     0.12600
C1562       C  0.94292622  0.95233113  0.22176938     0.62100
F1563       F  0.81565546  0.85001027  0.30979105    -0.23100
F1564       F  0.78476837  0.86564158  0.25674668    -0.20400
F1565       F  0.78557941  0.90563406  0.30641911    -0.20100
F1566       F  0.95698868  0.93108394  0.19212798    -0.20100
F1567       F  0.97087072  0.95695142  0.24883516    -0.20500
F1568       F  0.93387607  0.98788863  0.20803027    -0.23100
C1569       C  0.86347521  0.04785685  0.27468065    -0.06000
C1570       C  0.83343254  0.06785838  0.25798327     0.00000
C1571       C  0.83793925  0.10660297  0.24948515    -0.08600
C1572       C  0.87329231  0.12388642  0.25626220    -0.06000
C1573       C  0.90437699  0.10328721  0.27028816    -0.00100
C1574       C  0.89916161  0.06494592  0.28108989    -0.08500
C1575       C  0.93150993  0.04157496  0.29702282     0.61900
H1576       H  0.85943946  0.01794176  0.28033915     0.12500
H1577       H  0.87757131  0.15331394  0.24860851     0.12600
C1578       C  0.80654568  0.12844687  0.23018924     0.62100
F1579       F  0.92094081  0.00419185  0.30277927    -0.23100
F1580       F  0.94271406  0.05636521  0.33140123    -0.20400
F1581       F  0.96198226  0.04207957  0.27227048    -0.20100
F1582       F  0.77331388  0.12540371  0.25092958    -0.20100
F1583       F  0.80078996  0.11358842  0.19458908    -0.20500
F1584       F  0.81544822  0.16648842  0.22643707    -0.23100
C1585       C  0.40970786  0.88944686  0.28469304    -0.06000
C1586       C  0.41403720  0.85726196  0.26149326     0.00000
C1587       C  0.39026423  0.85340756  0.22929082    -0.08600
C1588       C  0.36318164  0.88173025  0.22202852    -0.06000
C1589       C  0.35985886  0.91430254  0.24464857    -0.00100
C1590       C  0.38361441  0.91834267  0.27660544    -0.08500
C1591       C  0.38309908  0.95370427  0.30108057     0.61900
H1592       H  0.42805045  0.89261918  0.30897841     0.12500
H1593       H  0.34494296  0.87926070  0.19754167     0.12600
C1594       C  0.39324377  0.82017150  0.20226069     0.62100
F1595       F  0.41123319  0.95314973  0.32836204    -0.23100
F1596       F  0.34848201  0.95650338  0.31938035    -0.20400
F1597       F  0.38899686  0.98546342  0.27887312    -0.20100
F1598       F  0.39003692  0.78662728  0.22207468    -0.20100
F1599       F  0.42778594  0.82146189  0.18358484    -0.20500
F1600       F  0.36486681  0.82055970  0.17520379    -0.23100
C1601       C  0.40464683  0.07801544  0.22946222    -0.06000
C1602       C  0.36595850  0.08526085  0.23684186     0.00000
C1603       C  0.35531048  0.12213498  0.24894892    -0.08600
C1604       C  0.38410334  0.14944317  0.25549343    -0.06000
C1605       C  0.42264457  0.14131047  0.24941236    -0.00100
C1606       C  0.43308338  0.10548266  0.23512074    -0.08500
C1607       C  0.47420296  0.09655885  0.22544917     0.61900
H1608       H  0.41270530  0.05021022  0.21946456     0.12500
H1609       H  0.37684404  0.17710279  0.26649528     0.12600
C1610       C  0.31396805  0.13304566  0.25426307     0.62100
F1611       F  0.47782877  0.06146982  0.20841175    -0.23100
F1612       F  0.49601762  0.09655206  0.25784703    -0.20400
F1613       F  0.48822513  0.12361287  0.20073845    -0.20100
F1614       F  0.29862269  0.11333207  0.28443568    -0.20100
F1615       F  0.29364485  0.12477074  0.22187037    -0.20500
F1616       F  0.30999667  0.17135710  0.26147609    -0.23100
C1617       C  0.24185357  0.87344492  0.12882200    -0.06000
C1618       C  0.26346152  0.90113088  0.10967311     0.00000
C1619       C  0.28124549  0.89174932  0.07494308    -0.08600
C1620       C  0.27449161  0.85560692  0.05948264    -0.06000
C1621       C  0.25038449  0.82939492  0.07734558    -0.00100
C1622       C  0.23450334  0.83783122  0.11289026    -0.08500
C1623       C  0.20823355  0.80996766  0.13272267     0.61900
H1624       H  0.22921609  0.88055620  0.15579326     0.12500
H1625       H  0.28567769  0.84849438  0.03186126     0.12600
C1626       C  0.30508613  0.92023152  0.05306637     0.62100
F1627       F  0.19918092  0.82165966  0.16892861    -0.23100
F1628       F  0.22562185  0.77498651  0.13513209    -0.20400
F1629       F  0.17482820  0.80634826  0.11257732    -0.20100
F1630       F  0.33752412  0.92906756  0.07324587    -0.20100
F1631       F  0.28428951  0.95278134  0.04674249    -0.20500
F1632       F  0.31632592  0.90617973  0.01837964    -0.23100
C1633       C  0.23965811  0.13063473  0.05470233    -0.06000
C1634       C  0.25102359  0.16265437  0.07536772     0.00000
C1635       C  0.27465054  0.15841104  0.10714630    -0.08600
C1636       C  0.28475429  0.12155708  0.11838869    -0.06000
C1637       C  0.27141182  0.08934455  0.09897767    -0.00100
C1638       C  0.24994021  0.09389203  0.06554256    -0.08500
C1639       C  0.23885663  0.06049177  0.04071975     0.61900
H1640       H  0.22225211  0.13465006  0.02983623     0.12500
H1641       H  0.30118502  0.11756064  0.14390059     0.12600
C1642       C  0.28676176  0.19236610  0.13028275     0.62100
F1643       F  0.22561439  0.07226089  0.00584012    -0.23100
F1644       F  0.21041174  0.03940118  0.05773063    -0.20400
F1645       F  0.27020814  0.03777710  0.03457884    -0.20100
F1646       F  0.25481046  0.21069055  0.14368969    -0.20100
F1647       F  0.30773210  0.21699111  0.10805648    -0.20500
F1648       F  0.30885917  0.18206414  0.16088763    -0.23100
C1649       C  0.15611663  0.90751503  0.21571442    -0.06000
C1650       C  0.17164199  0.92734905  0.24616558     0.00000
C1651       C  0.15283216  0.92661885  0.28139956    -0.08600
C1652       C  0.11730526  0.90784448  0.28410526    -0.06000
C1653       C  0.09996542  0.89049498  0.25249714    -0.00100
C1654       C  0.12047690  0.88983810  0.21745145    -0.08500
C1655       C  0.10533228  0.87229976  0.18093982     0.61900
H1656       H  0.17158910  0.90824832  0.18924968     0.12500
H1657       H  0.10245684  0.90742375  0.31089693     0.12600
C1658       C  0.16978933  0.94639700  0.31540852     0.62100
F1659       F  0.12991016  0.87736096  0.15073633    -0.23100
F1660       F  0.07122924  0.88899263  0.17114573    -0.20400
F1661       F  0.10044092  0.83371864  0.18536243    -0.20100
F1662       F  0.17317089  0.98479104  0.30829140    -0.20100
F1663       F  0.20536242  0.93162818  0.32276746    -0.20500
F1664       F  0.14756988  0.94159667  0.34737798    -0.23100
C1665       C  0.16132246  0.08563079  0.27349233    -0.06000
C1666       C  0.16625148  0.07473624  0.23560006     0.00000
C1667       C  0.13436754  0.07654970  0.21085204    -0.08600
C1668       C  0.09937107  0.08906917  0.22523895    -0.06000
C1669       C  0.09447229  0.10105000  0.26277737    -0.00100
C1670       C  0.12617496  0.09876351  0.28768870    -0.08500
C1671       C  0.12341855  0.10930308  0.32917298     0.61900
H1672       H  0.18551225  0.08353380  0.29220178     0.12500
H1673       H  0.07527862  0.09030292  0.20640321     0.12600
C1674       C  0.13615005  0.06490507  0.16937591     0.62100
F1675       F  0.15675151  0.10187104  0.34848973    -0.23100
F1676       F  0.09460217  0.08867625  0.34621507    -0.20400
F1677       F  0.11618149  0.14749870  0.33265469    -0.20100
F1678       F  0.14693292  0.02742653  0.16638717    -0.20100
F1679       F  0.16170769  0.08782072  0.15020340    -0.20500
F1680       F  0.10138798  0.06834515  0.15143900    -0.23100
loop_ 
_geom_bond_atom_site_label_1 
_geom_bond_atom_site_label_2 
_geom_bond_distance 
_geom_bond_site_symmetry_2 
_ccdc_geom_bond_type 
Fe1          O17   2.041   1_545  S
Fe1           O7   2.050   1_545  S
Fe1          O14   2.064       .  S
Fe1           O6   2.044       .  S
Fe1          O12   1.929       .  S
Fe2           O5   2.035       .  S
Fe2           O9   2.089       .  S
Fe2          O13   2.054   1_565  S
Fe2          O18   2.062   1_565  S
Fe2          O12   1.942   1_565  S
Fe3          O21   2.103   1_545  S
Fe3           O8   2.093       .  S
Fe3          O15   2.089   1_545  S
Fe3           O4   2.112       .  S
Fe3          O12   1.946       .  S
O4           C11   1.279       .  A
O5           C19   1.267       .  A
O6           C11   1.265       .  A
O7           C10   1.267       .  A
O8           C20   1.277       .  A
O9           C22   1.273       .  A
C10          O15   1.274       .  A
C10        C1650   1.479       .  S
C11        C1666   1.498       .  S
O13          C16   1.263       .  A
O14          C16   1.264       .  A
C16        C1637   1.475       .  S
O17          C22   1.268       .  A
O18          C20   1.271       .  A
C19          O21   1.278       .  A
C19        C1589   1.486       .  S
C20        C1602   1.497       .  S
C22        C1618   1.483       .  S
Fe23         O39   2.053   1_565  S
Fe23         O29   2.052   1_565  S
Fe23         O36   2.073       .  S
Fe23         O28   2.049       .  S
Fe23         O34   1.937       .  S
Fe24         O27   2.041   1_565  S
Fe24         O31   2.096   1_565  S
Fe24         O35   2.058       .  S
Fe24         O40   2.068       .  S
Fe24         O34   1.951       .  S
Fe25         O43   2.098   1_565  S
Fe25         O30   2.079       .  S
Fe25         O37   2.081   1_565  S
Fe25         O26   2.099       .  S
Fe25         O34   1.946       .  S
O26          C33   1.276       .  A
O27          C41   1.267       .  A
O28          C33   1.271       .  A
O29          C32   1.265       .  A
O30          C42   1.271       .  A
O31          C44   1.274       .  A
C32          O37   1.273       .  A
C32        C1570   1.471       .  S
C33        C1557   1.478       .  S
O35          C38   1.264       .  A
O36          C38   1.267       .  A
C38        C1538   1.478       .  S
O39          C44   1.268       .  A
O40          C42   1.271       .  A
C41          O43   1.278       .  A
C41        C1506   1.479       .  S
C42        C1490   1.506       .  S
C44        C1522   1.480       .  S
Fe45         O61   2.042   1_554  S
Fe45         O51   2.069   1_554  S
Fe45         O58   2.082       .  S
Fe45         O50   2.036       .  S
Fe45         O56   1.935       .  S
Fe46         O49   2.048   1_554  S
Fe46         O53   2.089   1_554  S
Fe46         O57   2.056       .  S
Fe46         O62   2.068       .  S
Fe46         O56   1.951       .  S
Fe47         O65   2.111   1_554  S
Fe47         O52   2.088       .  S
Fe47         O59   2.085   1_554  S
Fe47         O48   2.101       .  S
Fe47         O56   1.942       .  S
O48          C55   1.275       .  A
O49          C63   1.268       .  A
O50          C55   1.264       .  A
O51          C54   1.270       .  A
O52          C64   1.273       .  A
O53          C66   1.271       .  A
C54          O59   1.276       .  A
C54        C1477   1.476       .  S
C55        C1634   1.472       .  S
O57          C60   1.264       .  A
O58          C60   1.273       .  A
C60        C1442   1.486       .  S
O61          C66   1.265       .  A
O62          C64   1.271       .  A
C63          O65   1.280       .  A
C63        C1413   1.488       .  S
C64        C1426   1.509       .  S
C66        C1458   1.476       .  S
Fe67         O83   2.047       .  S
Fe67         O73   2.042       .  S
Fe67         O80   2.072   1_554  S
Fe67         O72   2.045   1_554  S
Fe67         O78   1.941       .  S
Fe68         O71   2.045       .  S
Fe68         O75   2.104       .  S
Fe68         O79   2.067   1_554  S
Fe68         O84   2.062   1_554  S
Fe68         O78   1.954       .  S
Fe69         O87   2.120       .  S
Fe69         O74   2.079   1_554  S
Fe69         O81   2.072       .  S
Fe69         O70   2.117   1_554  S
Fe69         O78   1.947       .  S
O70          C77   1.284       .  A
O71          C85   1.271       .  A
O72          C77   1.270       .  A
O73          C76   1.262       .  A
O74          C86   1.269       .  A
O75          C88   1.275       .  A
C76          O81   1.268       .  A
C76        C1621   1.464       .  S
C77        C1394   1.499       .  S
O79          C82   1.263       .  A
O80          C82   1.269       .  A
C82        C1362   1.505       .  S
O83          C88   1.265       .  A
O84          C86   1.269       .  A
C85          O87   1.283       .  A
C85        C1333   1.507       .  S
C86        C1349   1.496       .  S
C88        C1381   1.483       .  S
Fe89        O105   2.062       .  S
Fe89         O95   2.049       .  S
Fe89        O102   2.053   1_455  S
Fe89         O94   2.063   1_455  S
Fe89        O100   1.945       .  S
Fe90         O93   2.085   1_655  S
Fe90         O97   2.061   1_655  S
Fe90        O101   2.101       .  S
Fe90        O106   2.048       .  S
Fe90        O100   1.956   1_655  S
Fe91        O109   2.079       .  S
Fe91         O96   2.109   1_455  S
Fe91        O103   2.093       .  S
Fe91         O92   2.080   1_455  S
Fe91        O100   1.961       .  S
O92          C99   1.279       .  A
O93         C107   1.278       .  A
O94          C99   1.272       .  A
O95          C98   1.262       .  A
O96         C108   1.274       .  A
O97         C110   1.263       .  A
C98         O103   1.269       .  A
C98        C1461   1.475       .  S
C99        C1317   1.473       .  S
O101        C104   1.276       .  A
O102        C104   1.266       .  A
C104       C1285   1.492       .  S
O105        C110   1.267       .  A
O106        C108   1.262       .  A
C107        O109   1.275       .  A
C107       C1266   1.507       .  S
C108       C1250   1.488       .  S
C110       C1301   1.471       .  S
Fe111       O127   2.044   1_455  S
Fe111       O117   2.039   1_455  S
Fe111       O124   2.072       .  S
Fe111       O116   2.043       .  S
Fe111       O122   1.936       .  S
Fe112       O115   2.044   1_455  S
Fe112       O119   2.097   1_455  S
Fe112       O123   2.070       .  S
Fe112       O128   2.057       .  S
Fe112       O122   1.948       .  S
Fe113       O131   2.117   1_455  S
Fe113       O118   2.084       .  S
Fe113       O125   2.090   1_455  S
Fe113       O114   2.110       .  S
Fe113       O122   1.949       .  S
O114        C121   1.283       .  A
O115        C129   1.267       .  A
O116        C121   1.273       .  A
O117        C120   1.263       .  A
O118        C130   1.271       .  A
O119        C132   1.274       .  A
C120        O125   1.272       .  A
C120       C1237   1.480       .  S
C121       C1445   1.490       .  S
O123        C126   1.263       .  A
O124        C126   1.267       .  A
C126       C1669   1.505       .  S
O127        C132   1.268       .  A
O128        C130   1.266       .  A
C129        O131   1.284       .  A
C129       C1202   1.501       .  S
C130       C1218   1.476       .  S
C132       C1573   1.483       .  S
Fe133       O149   2.018   1_655  S
Fe133       O139   2.068   1_655  S
Fe133       O146   2.058       .  S
Fe133       O138   2.030       .  S
Fe133       O144   1.928   1_655  S
Fe134       O137   2.035       .  S
Fe134       O141   2.121       .  S
Fe134       O145   2.066   1_455  S
Fe134       O150   2.083   1_455  S
Fe134       O144   1.946       .  S
Fe135       O153   2.100       .  S
Fe135       O140   2.079   1_455  S
Fe135       O147   2.092       .  S
Fe135       O136   2.107   1_455  S
Fe135       O144   1.943       .  S
O136        C143   1.276       .  A
O137        C151   1.267       .  A
O138        C143   1.264       .  A
O139        C142   1.268       .  A
O140        C152   1.273       .  A
O141        C154   1.283       .  A
C142        O147   1.275       .  A
C142       C1378   1.486       .  S
C143       C1186   1.477       .  S
O145        C148   1.262       .  A
O146        C148   1.261       .  A
C148       C1554   1.483       .  S
O149        C154   1.262       .  A
O150        C152   1.275       .  A
C151        O153   1.277       .  A
C151       C1157   1.496       .  S
C152       C1170   1.511       .  S
C154       C1653   1.502       .  S
Fe155       O171   2.052   1_554  S
Fe155       O161   2.046   1_554  S
Fe155       O168   2.071       .  S
Fe155       O160   2.047       .  S
Fe155       O166   1.936       .  S
Fe156       O159   2.032   1_554  S
Fe156       O163   2.081   1_554  S
Fe156       O167   2.046       .  S
Fe156       O172   2.051       .  S
Fe156       O166   1.952       .  S
Fe157       O175   2.103   1_554  S
Fe157       O162   2.081       .  S
Fe157       O169   2.077   1_554  S
Fe157       O158   2.094       .  S
Fe157       O166   1.954       .  S
O158        C165   1.276       .  A
O159        C173   1.268       .  A
O160        C165   1.270       .  A
O161        C164   1.264       .  A
O162        C174   1.271       .  A
O163        C176   1.268       .  A
C164        O169   1.271       .  A
C164       C1138   1.467       .  S
C165       C1541   1.471       .  S
O167        C170   1.265       .  A
O168        C170   1.267       .  A
C170       C1189   1.487       .  S
O171        C176   1.266       .  A
O172        C174   1.264       .  A
C173        O175   1.279       .  A
C173       C1090   1.482       .  S
C174       C1109   1.476       .  S
C176       C1122   1.476       .  S
Fe177       O193   2.045       .  S
Fe177       O183   2.061       .  S
Fe177       O190   2.078   1_545  S
Fe177       O182   2.039   1_545  S
Fe177       O188   1.936       .  S
Fe178       O181   2.041       .  S
Fe178       O185   2.101       .  S
Fe178       O189   2.065   1_545  S
Fe178       O194   2.070   1_545  S
Fe178       O188   1.946       .  S
Fe179       O197   2.105       .  S
Fe179       O184   2.088   1_545  S
Fe179       O191   2.086       .  S
Fe179       O180   2.100   1_545  S
Fe179       O188   1.949       .  S
O180        C187   1.275       .  A
O181        C195   1.268       .  A
O182        C187   1.267       .  A
O183        C186   1.271       .  A
O184        C196   1.273       .  A
O185        C198   1.276       .  A
C186        O191   1.274       .  A
C186       C1298   1.487       .  S
C187       C1074   1.485       .  S
O189        C192   1.264       .  A
O190        C192   1.270       .  A
C192       C1397   1.494       .  S
O193        C198   1.266       .  A
O194        C196   1.271       .  A
C195        O197   1.279       .  A
C195       C1045   1.479       .  S
C196       C1058   1.503       .  S
C198       C1474   1.493       .  S
Fe199       O215   2.050       .  S
Fe199       O205   2.049       .  S
Fe199       O212   2.065   1_655  S
Fe199       O204   2.045   1_655  S
Fe199       O210   1.929       .  S
Fe200       O203   2.039       .  S
Fe200       O207   2.086       .  S
Fe200       O211   2.057   1_655  S
Fe200       O216   2.061   1_655  S
Fe200       O210   1.941       .  S
Fe201       O219   2.120   1_455  S
Fe201       O206   2.085       .  S
Fe201       O213   2.081   1_455  S
Fe201       O202   2.117       .  S
Fe201       O210   1.939   1_455  S
O202        C209   1.283       .  A
O203        C217   1.268       .  A
O204        C209   1.267       .  A
O205        C208   1.264       .  A
O206        C218   1.275       .  A
O207        C220   1.273       .  A
C208        O213   1.272       .  A
C208       C1125   1.470       .  S
C209       C1365   1.497       .  S
O211        C214   1.264       .  A
O212        C214   1.262       .  A
C214       C1077   1.492       .  S
O215        C220   1.269       .  A
O216        C218   1.265       .  A
C217        O219   1.284       .  A
C217        C994   1.476       .  S
C218       C1010   1.500       .  S
C220       C1029   1.474       .  S
Fe221       O237   2.044       .  S
Fe221       O227   2.066       .  S
Fe221       O234   2.079   1_554  S
Fe221       O226   2.038   1_554  S
Fe221       O232   1.933       .  S
Fe222       O225   2.031       .  S
Fe222       O229   2.094       .  S
Fe222       O233   2.049   1_554  S
Fe222       O238   2.066   1_554  S
Fe222       O232   1.950       .  S
Fe223       O241   2.099       .  S
Fe223       O228   2.080   1_554  S
Fe223       O235   2.082       .  S
Fe223       O224   2.097   1_554  S
Fe223       O232   1.950       .  S
O224        C231   1.277       .  A
O225        C239   1.266       .  A
O226        C231   1.263       .  A
O227        C230   1.268       .  A
O228        C240   1.273       .  A
O229        C242   1.274       .  A
C230        O235   1.273       .  A
C230       C1525   1.479       .  S
C231        C981   1.486       .  S
O233        C236   1.261       .  A
O234        C236   1.270       .  A
C236       C1314   1.481       .  S
O237        C242   1.266       .  A
O238        C240   1.271       .  A
C239        O241   1.277       .  A
C239        C949   1.480       .  S
C240        C965   1.489       .  S
C242       C1234   1.471       .  S
Fe243       O259   2.032   1_545  S
Fe243       O249   2.055   1_545  S
Fe243       O256   2.065       .  S
Fe243       O248   2.047       .  S
Fe243       O254   1.927       .  S
Fe244       O247   2.030   1_545  S
Fe244       O251   2.096   1_545  S
Fe244       O255   2.051       .  S
Fe244       O260   2.065       .  S
Fe244       O254   1.945       .  S
Fe245       O263   2.117   1_545  S
Fe245       O250   2.085       .  S
Fe245       O257   2.076   1_545  S
Fe245       O246   2.129       .  S
Fe245       O254   1.934       .  S
O246        C253   1.283       .  A
O247        C261   1.267       .  A
O248        C253   1.271       .  A
O249        C252   1.268       .  A
O250        C262   1.276       .  A
O251        C264   1.273       .  A
C252        O257   1.271       .  A
C252       C1026   1.467       .  S
C253       C1282   1.496       .  S
O255        C258   1.260       .  A
O256        C258   1.268       .  A
C258        C978   1.493       .  S
O259        C264   1.267       .  A
O260        C262   1.266       .  A
C261        O263   1.283       .  A
C261        C914   1.487       .  S
C262        C930   1.506       .  S
C264       C1141   1.493       .  S
Fe265       O281   2.052       .  S
Fe265       O271   2.028       .  S
Fe265       O278   2.063       .  S
Fe265       O270   2.058       .  S
Fe265       O276   1.935       .  S
Fe266       O269   2.038       .  S
Fe266       O273   2.107       .  S
Fe266       O277   2.068       .  S
Fe266       O282   2.057       .  S
Fe266       O276   1.950       .  S
Fe267       O285   2.114       .  S
Fe267       O272   2.091       .  S
Fe267       O279   2.100       .  S
Fe267       O268   2.111       .  S
Fe267       O276   1.948       .  S
O268        C275   1.282       .  A
O269        C283   1.271       .  A
O270        C275   1.274       .  A
O271        C274   1.261       .  A
O272        C284   1.273       .  A
O273        C286   1.277       .  A
C274        O279   1.274       .  A
C274        C882   1.484       .  S
C275        C898   1.487       .  S
O277        C280   1.264       .  A
O278        C280   1.260       .  A
C280        C866   1.496       .  S
O281        C286   1.268       .  A
O282        C284   1.266       .  A
C283        O285   1.282       .  A
C283       C1509   1.491       .  S
C284       C1605   1.480       .  S
C286        C853   1.482       .  S
Fe287       O303   2.068       .  S
Fe287       O293   2.044       .  S
Fe287       O300   2.052       .  S
Fe287       O292   2.067       .  S
Fe287       O298   1.935       .  S
Fe288       O291   2.074       .  S
Fe288       O295   2.049       .  S
Fe288       O299   2.105       .  S
Fe288       O304   2.025       .  S
Fe288       O298   1.950       .  S
Fe289       O307   2.093       .  S
Fe289       O294   2.123       .  S
Fe289       O301   2.124       .  S
Fe289       O290   2.094       .  S
Fe289       O298   1.957       .  S
O290        C297   1.275       .  A
O291        C305   1.272       .  A
O292        C297   1.268       .  A
O293        C296   1.267       .  A
O294        C306   1.282       .  A
O295        C308   1.261       .  A
C296        O301   1.280       .  A
C296        C818   1.502       .  S
C297        C834   1.491       .  S
O299        C302   1.276       .  A
O300        C302   1.270       .  A
C302        C901   1.497       .  S
O303        C308   1.266       .  A
O304        C306   1.265       .  A
C305        O307   1.275       .  A
C305       C1330   1.503       .  S
C306       C1429   1.489       .  S
C308        C802   1.475       .  S
Fe309       O325   2.055       .  S
Fe309       O315   2.069       .  S
Fe309       O322   2.078       .  S
Fe309       O314   2.040       .  S
Fe309       O320   1.935       .  S
Fe310       O313   2.035       .  S
Fe310       O317   2.087       .  S
Fe310       O321   2.059       .  S
Fe310       O326   2.048       .  S
Fe310       O320   1.948       .  S
Fe311       O329   2.119       .  S
Fe311       O316   2.091       .  S
Fe311       O323   2.096       .  S
Fe311       O312   2.113       .  S
Fe311       O320   1.960       .  S
O312        C319   1.278       .  A
O313        C327   1.268       .  A
O314        C319   1.268       .  A
O315        C318   1.268       .  A
O316        C328   1.273       .  A
O317        C330   1.272       .  A
C318        O323   1.276       .  A
C318        C786   1.497       .  S
C319        C869   1.498       .  S
O321        C324   1.262       .  A
O322        C324   1.269       .  A
C324        C837   1.478       .  S
O325        C330   1.269       .  A
O326        C328   1.267       .  A
C327        O329   1.282       .  A
C327       C1269   1.495       .  S
C328       C1221   1.495       .  S
C330        C770   1.472       .  S
Fe331       O347   2.037       .  S
Fe331       O337   2.062       .  S
Fe331       O344   2.056       .  S
Fe331       O336   2.030       .  S
Fe331       O342   1.941       .  S
Fe332       O335   2.033       .  S
Fe332       O339   2.097       .  S
Fe332       O343   2.058       .  S
Fe332       O348   2.073       .  S
Fe332       O342   1.957       .  S
Fe333       O351   2.097       .  S
Fe333       O338   2.073       .  S
Fe333       O345   2.083       .  S
Fe333       O334   2.100       .  S
Fe333       O342   1.965       .  S
O334        C341   1.273       .  A
O335        C349   1.263       .  A
O336        C341   1.260       .  A
O337        C340   1.268       .  A
O338        C350   1.276       .  A
O339        C352   1.277       .  A
C340        O345   1.274       .  A
C340        C738   1.475       .  S
C341        C754   1.463       .  S
O343        C346   1.261       .  A
O344        C346   1.263       .  A
C346        C722   1.476       .  S
O347        C352   1.266       .  A
O348        C350   1.273       .  A
C349        O351   1.272       .  A
C349       C1154   1.502       .  S
C350       C1013   1.478       .  S
C352        C821   1.489       .  S
Fe353       O369   2.075       .  S
Fe353       O359   2.044       .  S
Fe353       O366   2.047       .  S
Fe353       O358   2.055       .  S
Fe353       O364   1.932       .  S
Fe354       O357   2.054       .  S
Fe354       O361   2.055       .  S
Fe354       O365   2.085       .  S
Fe354       O370   2.041       .  S
Fe354       O364   1.947       .  S
Fe355       O373   2.099       .  S
Fe355       O360   2.109       .  S
Fe355       O367   2.106       .  S
Fe355       O356   2.080       .  S
Fe355       O364   1.935       .  S
O356        C363   1.273       .  A
O357        C371   1.266       .  A
O358        C363   1.268       .  A
O359        C362   1.268       .  A
O360        C372   1.281       .  A
O361        C374   1.264       .  A
C362        O367   1.278       .  A
C362        C773   1.474       .  S
C363        C725   1.469       .  S
O365        C368   1.269       .  A
O366        C368   1.263       .  A
C368        C706   1.471       .  S
O369        C374   1.273       .  A
O370        C372   1.272       .  A
C371        O373   1.273       .  A
C371       C1410   1.510       .  S
C372       C1346   1.501       .  S
C374        C690   1.492       .  S
Fe375       O391   2.049       .  S
Fe375       O381   2.026       .  S
Fe375       O388   2.059       .  S
Fe375       O380   2.057       .  S
Fe375       O386   1.945       .  S
Fe376       O379   2.046       .  S
Fe376       O383   2.100       .  S
Fe376       O387   2.073       .  S
Fe376       O392   2.060       .  S
Fe376       O386   1.953       .  S
Fe377       O395   2.093       .  S
Fe377       O382   2.075       .  S
Fe377       O389   2.091       .  S
Fe377       O378   2.089       .  S
Fe377       O386   1.965       .  S
O378        C385   1.276       .  A
O379        C393   1.269       .  A
O380        C385   1.273       .  A
O381        C384   1.262       .  A
O382        C394   1.272       .  A
O383        C396   1.278       .  A
C384        O389   1.272       .  A
C384        C805   1.489       .  S
C385        C674   1.471       .  S
O387        C390   1.263       .  A
O388        C390   1.263       .  A
C390        C658   1.492       .  S
O391        C396   1.267       .  A
O392        C394   1.269       .  A
C393        O395   1.275       .  A
C393       C1586   1.497       .  S
C394       C1493   1.478       .  S
C396        C741   1.502       .  S
Fe397       O413   2.053       .  S
Fe397       O403   2.051       .  S
Fe397       O410   2.072       .  S
Fe397       O402   2.042       .  S
Fe397       O408   1.939       .  S
Fe398       O401   2.033       .  S
Fe398       O405   2.077       .  S
Fe398       O409   2.050       .  S
Fe398       O414   2.054       .  S
Fe398       O408   1.951       .  S
Fe399       O417   2.104       .  S
Fe399       O404   2.085       .  S
Fe399       O411   2.083       .  S
Fe399       O400   2.096       .  S
Fe399       O408   1.955       .  S
O400        C407   1.274       .  A
O401        C415   1.266       .  A
O402        C407   1.266       .  A
O403        C406   1.267       .  A
O404        C416   1.274       .  A
O405        C418   1.268       .  A
C406        O411   1.275       .  A
C406        C626   1.468       .  S
C407        C642   1.471       .  S
O409        C412   1.264       .  A
O410        C412   1.269       .  A
C412        C677   1.467       .  S
O413        C418   1.265       .  A
O414        C416   1.267       .  A
C415        O417   1.277       .  A
C415        C946   1.488       .  S
C416       C1106   1.481       .  S
C418        C885   1.472       .  S
Fe419       O435   2.062       .  S
Fe419       O425   2.045       .  S
Fe419       O432   2.041       .  S
Fe419       O424   2.045       .  S
Fe419       O430   1.951       .  S
Fe420       O423   2.051       .  S
Fe420       O427   2.066       .  S
Fe420       O431   2.080       .  S
Fe420       O436   2.040       .  S
Fe420       O430   1.966       .  S
Fe421       O439   2.099       .  S
Fe421       O426   2.114       .  S
Fe421       O433   2.115       .  S
Fe421       O422   2.089       .  S
Fe421       O430   1.976       .  S
O422        C429   1.276       .  A
O423        C437   1.269       .  A
O424        C429   1.266       .  A
O425        C428   1.263       .  A
O426        C438   1.277       .  A
O427        C440   1.266       .  A
C428        O433   1.277       .  A
C428        C610   1.491       .  S
C429        C661   1.484       .  S
O431        C434   1.269       .  A
O432        C434   1.263       .  A
C434        C645   1.472       .  S
O435        C440   1.266       .  A
O436        C438   1.265       .  A
C437        O439   1.278       .  A
C437        C997   1.485       .  S
C438       C1173   1.496       .  S
C440        C594   1.475       .  S
Fe441       O457   2.045       .  S
Fe441       O447   2.058       .  S
Fe441       O454   2.084       .  S
Fe441       O446   2.029       .  S
Fe441       O452   1.936       .  S
Fe442       O445   2.036       .  S
Fe442       O449   2.103       .  S
Fe442       O453   2.063       .  S
Fe442       O458   2.072       .  S
Fe442       O452   1.943       .  S
Fe443       O461   2.102       .  S
Fe443       O448   2.081       .  S
Fe443       O455   2.080       .  S
Fe443       O444   2.105       .  S
Fe443       O452   1.951       .  S
O444        C451   1.280       .  A
O445        C459   1.267       .  A
O446        C451   1.263       .  A
O447        C450   1.268       .  A
O448        C460   1.272       .  A
O449        C462   1.277       .  A
C450        O455   1.271       .  A
C450        C597   1.481       .  S
C451        C578   1.496       .  S
O453        C456   1.263       .  A
O454        C456   1.269       .  A
C456        C546   1.484       .  S
O457        C462   1.268       .  A
O458        C460   1.272       .  A
C459        O461   1.278       .  A
C459       C1093   1.479       .  S
C460        C962   1.495       .  S
C462        C562   1.490       .  S
Fe463       O479   2.043       .  S
Fe463       O469   2.054       .  S
Fe463       O476   2.059       .  S
Fe463       O468   2.036       .  S
Fe463       O474   1.953       .  S
Fe464       O467   2.027       .  S
Fe464       O471   2.087       .  S
Fe464       O475   2.046       .  S
Fe464       O480   2.062       .  S
Fe464       O474   1.963       .  S
Fe465       O483   2.106       .  S
Fe465       O470   2.096       .  S
Fe465       O477   2.091       .  S
Fe465       O466   2.107       .  S
Fe465       O474   1.968       .  S
O466        C473   1.274       .  A
O467        C481   1.262       .  A
O468        C473   1.262       .  A
O469        C472   1.267       .  A
O470        C482   1.279       .  A
O471        C484   1.271       .  A
C472        O477   1.277       .  A
C472        C565   1.474       .  S
C473        C709   1.475       .  S
O475        C478   1.261       .  A
O476        C478   1.265       .  A
C478        C757   1.467       .  S
O479        C484   1.266       .  A
O480        C482   1.270       .  A
C481        O483   1.275       .  A
C481        C917   1.491       .  S
C482       C1061   1.489       .  S
C484        C613   1.480       .  S
Fe485       O501   2.065       .  S
Fe485       O491   2.035       .  S
Fe485       O498   2.034       .  S
Fe485       O490   2.063       .  S
Fe485       O496   1.939       .  S
Fe486       O489   2.064       .  S
Fe486       O493   2.060       .  S
Fe486       O497   2.099       .  S
Fe486       O502   2.039       .  S
Fe486       O496   1.942       .  S
Fe487       O505   2.074       .  S
Fe487       O492   2.118       .  S
Fe487       O499   2.106       .  S
Fe487       O488   2.088       .  S
Fe487       O496   1.941       .  S
O488        C495   1.276       .  A
O489        C503   1.272       .  A
O490        C495   1.265       .  A
O491        C494   1.264       .  A
O492        C504   1.281       .  A
O493        C506   1.259       .  A
C494        O499   1.281       .  A
C494        C693   1.492       .  S
C495        C549   1.486       .  S
O497        C500   1.279       .  A
O498        C500   1.267       .  A
C500        C533   1.488       .  S
O501        C506   1.264       .  A
O502        C504   1.264       .  A
C503        O505   1.270       .  A
C503       C1042   1.501       .  S
C504        C933   1.486       .  S
C506        C789   1.478       .  S
Fe507       O523   2.053       .  S
Fe507       O513   2.051       .  S
Fe507       O520   2.067       .  S
Fe507       O512   2.059       .  S
Fe507       O518   1.944       .  S
Fe508       O511   2.054       .  S
Fe508       O515   2.087       .  S
Fe508       O519   2.059       .  S
Fe508       O524   2.060       .  S
Fe508       O518   1.957       .  S
Fe509       O527   2.092       .  S
Fe509       O514   2.097       .  S
Fe509       O521   2.102       .  S
Fe509       O510   2.087       .  S
Fe509       O518   1.941       .  S
O510        C517   1.275       .  A
O511        C525   1.269       .  A
O512        C517   1.276       .  A
O513        C516   1.264       .  A
O514        C526   1.274       .  A
O515        C528   1.272       .  A
C516        O521   1.275       .  A
C516        C850   1.487       .  S
C517        C530   1.486       .  S
O519        C522   1.262       .  A
O520        C522   1.267       .  A
C522        C581   1.486       .  S
O523        C528   1.270       .  A
O524        C526   1.268       .  A
C525        O527   1.280       .  A
C525       C1205   1.489       .  S
C526       C1253   1.504       .  S
C528        C629   1.490       .  S
C529        C530   1.401       .  A
C529        C534   1.403       .  A
C529        H536   1.084       .  S
C530        C531   1.424       .  A
C531        C532   1.409       .  A
C531        C538   1.520       .  S
C532        C533   1.403       .  A
C532        H537   1.082       .  S
C533        C534   1.423       .  A
C534        C535   1.519       .  S
C535        F539   1.384       .  S
C535        F540   1.382       .  S
C535        F541   1.382       .  S
C538        F542   1.383       .  S
C538        F543   1.378       .  S
C538        F544   1.385       .  S
C545        C546   1.398       .  A
C545        C550   1.407       .  A
C545        H552   1.084       .  S
C546        C547   1.422       .  A
C547        C548   1.409       .  A
C547        C554   1.514       .  S
C548        C549   1.399       .  A
C548        H553   1.083       .  S
C549        C550   1.425       .  A
C550        C551   1.518       .  S
C551        F555   1.385       .  S
C551        F556   1.380       .  S
C551        F557   1.382       .  S
C554        F558   1.374       .  S
C554        F559   1.381       .  S
C554        F560   1.385       .  S
C561        C562   1.410       .  A
C561        C566   1.407       .  A
C561        H568   1.083       .  S
C562        C563   1.418       .  A
C563        C564   1.411       .  A
C563        C570   1.518       .  S
C564        C565   1.404       .  A
C564        H569   1.083       .  S
C565        C566   1.412       .  A
C566        C567   1.518       .  S
C567        F571   1.385       .  S
C567        F572   1.382       .  S
C567        F573   1.382       .  S
C570        F574   1.382       .  S
C570        F575   1.384       .  S
C570        F576   1.384       .  S
C577        C578   1.411       .  A
C577        C582   1.409       .  A
C577        H584   1.082       .  S
C578        C579   1.429       .  A
C579        C580   1.401       .  A
C579        C586   1.526       .  S
C580        C581   1.402       .  A
C580        H585   1.082       .  S
C581        C582   1.417       .  A
C582        C583   1.519       .  S
C583        F587   1.385       .  S
C583        F588   1.384       .  S
C583        F589   1.383       .  S
C586        F590   1.384       .  S
C586        F591   1.381       .  S
C586        F592   1.385       .  S
C593        C594   1.406       .  A
C593        C598   1.411       .  A
C593        H600   1.082       .  S
C594        C595   1.410       .  A
C595        C596   1.402       .  A
C595        C602   1.517       .  S
C596        C597   1.408       .  A
C596        H601   1.084       .  S
C597        C598   1.414       .  A
C598        C599   1.516       .  S
C599        F603   1.383       .  S
C599        F604   1.383       .  S
C599        F605   1.385       .  S
C602        F606   1.383       .  S
C602        F607   1.382       .  S
C602        F608   1.385       .  S
C609        C610   1.406       .  A
C609        C614   1.416       .  A
C609        H616   1.083       .  S
C610        C611   1.428       .  A
C611        C612   1.401       .  A
C611        C618   1.522       .  S
C612        C613   1.394       .  A
C612        H617   1.084       .  S
C613        C614   1.419       .  A
C614        C615   1.517       .  S
C615        F619   1.384       .  S
C615        F620   1.383       .  S
C615        F621   1.383       .  S
C618        F622   1.381       .  S
C618        F623   1.377       .  S
C618        F624   1.385       .  S
C625        C626   1.403       .  A
C625        C630   1.410       .  A
C625        H632   1.084       .  S
C626        C627   1.408       .  A
C627        C628   1.403       .  A
C627        C634   1.517       .  S
C628        C629   1.408       .  A
C628        H633   1.079       .  S
C629        C630   1.422       .  A
C630        C631   1.519       .  S
C631        F635   1.385       .  S
C631        F636   1.383       .  S
C631        F637   1.383       .  S
C634        F638   1.383       .  S
C634        F639   1.381       .  S
C634        F640   1.384       .  S
C641        C642   1.403       .  A
C641        C646   1.400       .  A
C641        H648   1.084       .  S
C642        C643   1.410       .  A
C643        C644   1.410       .  A
C643        C650   1.513       .  S
C644        C645   1.407       .  A
C644        H649   1.083       .  S
C645        C646   1.412       .  A
C646        C647   1.517       .  S
C647        F651   1.385       .  S
C647        F652   1.382       .  S
C647        F653   1.381       .  S
C650        F654   1.383       .  S
C650        F655   1.383       .  S
C650        F656   1.384       .  S
C657        C658   1.405       .  A
C657        C662   1.402       .  A
C657        H664   1.083       .  S
C658        C659   1.420       .  A
C659        C660   1.415       .  A
C659        C666   1.517       .  S
C660        C661   1.407       .  A
C660        H665   1.083       .  S
C661        C662   1.419       .  A
C662        C663   1.523       .  S
C663        F667   1.385       .  S
C663        F668   1.383       .  S
C663        F669   1.383       .  S
C666        F670   1.384       .  S
C666        F671   1.382       .  S
C666        F672   1.384       .  S
C673        C674   1.405       .  A
C673        C678   1.404       .  A
C673        H680   1.083       .  S
C674        C675   1.411       .  A
C675        C676   1.406       .  A
C675        C682   1.516       .  S
C676        C677   1.404       .  A
C676        H681   1.084       .  S
C677        C678   1.409       .  A
C678        C679   1.514       .  S
C679        F683   1.384       .  S
C679        F684   1.380       .  S
C679        F685   1.383       .  S
C682        F686   1.378       .  S
C682        F687   1.383       .  S
C682        F688   1.385       .  S
C689        C690   1.405       .  A
C689        C694   1.401       .  A
C689        H696   1.083       .  S
C690        C691   1.423       .  A
C691        C692   1.410       .  A
C691        C698   1.519       .  S
C692        C693   1.407       .  A
C692        H697   1.082       .  S
C693        C694   1.424       .  A
C694        C695   1.524       .  S
C695        F699   1.385       .  S
C695        F700   1.384       .  S
C695        F701   1.383       .  S
C698        F702   1.384       .  S
C698        F703   1.383       .  S
C698        F704   1.385       .  S
C705        C706   1.407       .  A
C705        C710   1.410       .  A
C705        H712   1.084       .  S
C706        C707   1.409       .  A
C707        C708   1.404       .  A
C707        C714   1.518       .  S
C708        C709   1.407       .  A
C708        H713   1.084       .  S
C709        C710   1.411       .  A
C710        C711   1.514       .  S
C711        F715   1.385       .  S
C711        F716   1.383       .  S
C711        F717   1.383       .  S
C714        F718   1.383       .  S
C714        F719   1.383       .  S
C714        F720   1.384       .  S
C721        C722   1.405       .  A
C721        C726   1.403       .  A
C721        H728   1.084       .  S
C722        C723   1.414       .  A
C723        C724   1.410       .  A
C723        C730   1.516       .  S
C724        C725   1.405       .  A
C724        H729   1.083       .  S
C725        C726   1.411       .  A
C726        C727   1.518       .  S
C727        F731   1.385       .  S
C727        F732   1.381       .  S
C727        F733   1.383       .  S
C730        F734   1.383       .  S
C730        F735   1.383       .  S
C730        F736   1.385       .  S
C737        C738   1.397       .  A
C737        C742   1.406       .  A
C737        H744   1.084       .  S
C738        C739   1.412       .  A
C739        C740   1.412       .  A
C739        C746   1.515       .  S
C740        C741   1.411       .  A
C740        H745   1.082       .  S
C741        C742   1.431       .  A
C742        C743   1.521       .  S
C743        F747   1.386       .  S
C743        F748   1.383       .  S
C743        F749   1.382       .  S
C746        F750   1.380       .  S
C746        F751   1.383       .  S
C746        F752   1.385       .  S
C753        C754   1.402       .  A
C753        C758   1.397       .  A
C753        H760   1.084       .  S
C754        C755   1.409       .  A
C755        C756   1.409       .  A
C755        C762   1.516       .  S
C756        C757   1.409       .  A
C756        H761   1.083       .  S
C757        C758   1.410       .  A
C758        C759   1.518       .  S
C759        F763   1.385       .  S
C759        F764   1.383       .  S
C759        F765   1.383       .  S
C762        F766   1.383       .  S
C762        F767   1.384       .  S
C762        F768   1.385       .  S
C769        C770   1.405       .  A
C769        C774   1.409       .  A
C769        H776   1.084       .  S
C770        C771   1.411       .  A
C771        C772   1.405       .  A
C771        C778   1.517       .  S
C772        C773   1.406       .  A
C772        H777   1.084       .  S
C773        C774   1.410       .  A
C774        C775   1.512       .  S
C775        F779   1.385       .  S
C775        F780   1.383       .  S
C775        F781   1.383       .  S
C778        F782   1.383       .  S
C778        F783   1.383       .  S
C778        F784   1.385       .  S
C785        C786   1.405       .  A
C785        C790   1.416       .  A
C785        H792   1.083       .  S
C786        C787   1.427       .  A
C787        C788   1.398       .  A
C787        C794   1.510       .  S
C788        C789   1.390       .  A
C788        H793   1.084       .  S
C789        C790   1.421       .  A
C790        C791   1.516       .  S
C791        F795   1.383       .  S
C791        F796   1.384       .  S
C791        F797   1.381       .  S
C794        F798   1.380       .  S
C794        F799   1.378       .  S
C794        F800   1.385       .  S
C801        C802   1.409       .  A
C801        C806   1.412       .  A
C801        H808   1.083       .  S
C802        C803   1.411       .  A
C803        C804   1.397       .  A
C803        C810   1.522       .  S
C804        C805   1.411       .  A
C804        H809   1.082       .  S
C805        C806   1.415       .  A
C806        C807   1.514       .  S
C807        F811   1.385       .  S
C807        F812   1.383       .  S
C807        F813   1.381       .  S
C810        F814   1.381       .  S
C810        F815   1.381       .  S
C810        F816   1.383       .  S
C817        C818   1.410       .  A
C817        C822   1.401       .  A
C817        H824   1.082       .  S
C818        C819   1.422       .  A
C819        C820   1.417       .  A
C819        C826   1.517       .  S
C820        C821   1.409       .  A
C820        H825   1.083       .  S
C821        C822   1.416       .  A
C822        C823   1.524       .  S
C823        F827   1.385       .  S
C823        F828   1.385       .  S
C823        F829   1.383       .  S
C826        F830   1.382       .  S
C826        F831   1.383       .  S
C826        F832   1.385       .  S
C833        C834   1.402       .  A
C833        C838   1.414       .  A
C833        H840   1.083       .  S
C834        C835   1.424       .  A
C835        C836   1.401       .  A
C835        C842   1.508       .  S
C836        C837   1.392       .  A
C836        H841   1.084       .  S
C837        C838   1.420       .  A
C838        C839   1.513       .  S
C839        F843   1.384       .  S
C839        F844   1.383       .  S
C839        F845   1.381       .  S
C842        F846   1.380       .  S
C842        F847   1.379       .  S
C842        F848   1.385       .  S
C849        C850   1.409       .  A
C849        C854   1.407       .  A
C849        H856   1.081       .  S
C850        C851   1.414       .  A
C851        C852   1.413       .  A
C851        C858   1.515       .  S
C852        C853   1.408       .  A
C852        H857   1.083       .  S
C853        C854   1.412       .  A
C854        C855   1.519       .  S
C855        F859   1.385       .  S
C855        F860   1.383       .  S
C855        F861   1.383       .  S
C858        F862   1.382       .  S
C858        F863   1.380       .  S
C858        F864   1.384       .  S
C865        C866   1.413       .  A
C865        C870   1.414       .  A
C865        H872   1.082       .  S
C866        C867   1.425       .  A
C867        C868   1.400       .  A
C867        C874   1.529       .  S
C868        C869   1.407       .  A
C868        H873   1.080       .  S
C869        C870   1.420       .  A
C870        C871   1.517       .  S
C871        F875   1.385       .  S
C871        F876   1.382       .  S
C871        F877   1.383       .  S
C874        F878   1.379       .  S
C874        F879   1.383       .  S
C874        F880   1.385       .  S
C881        C882   1.410       .  A
C881        C886   1.401       .  A
C881        H888   1.083       .  S
C882        C883   1.414       .  A
C883        C884   1.412       .  A
C883        C890   1.513       .  S
C884        C885   1.406       .  A
C884        H889   1.084       .  S
C885        C886   1.407       .  A
C886        C887   1.516       .  S
C887        F891   1.384       .  S
C887        F892   1.381       .  S
C887        F893   1.384       .  S
C890        F894   1.382       .  S
C890        F895   1.383       .  S
C890        F896   1.385       .  S
C897        C898   1.407       .  A
C897        C902   1.413       .  A
C897        H904   1.083       .  S
C898        C899   1.418       .  A
C899        C900   1.405       .  A
C899        C906   1.518       .  S
C900        C901   1.407       .  A
C900        H905   1.085       .  S
C901        C902   1.421       .  A
C902        C903   1.517       .  S
C903        F907   1.385       .  S
C903        F908   1.381       .  S
C903        F909   1.382       .  S
C906        F910   1.384       .  S
C906        F911   1.382       .  S
C906        F912   1.381       .  S
C913        C914   1.411       .  A
C913        C918   1.410       .  A
C913        H920   1.083       .  S
C914        C915   1.415       .  A
C915        C916   1.406       .  A
C915        C922   1.520       .  S
C916        C917   1.410       .  A
C916        H921   1.083       .  S
C917        C918   1.416       .  A
C918        C919   1.518       .  S
C919        F923   1.385       .  S
C919        F924   1.382       .  S
C919        F925   1.383       .  S
C922        F926   1.383       .  S
C922        F927   1.383       .  S
C922        F928   1.385       .  S
C929        C930   1.408       .  A
C929        C934   1.408       .  A
C929        H936   1.082       .  S
C930        C931   1.435       .  A
C931        C932   1.411       .  A
C931        C938   1.525       .  S
C932        C933   1.398       .  A
C932        H937   1.083       .  S
C933        C934   1.418       .  A
C934        C935   1.518       .  S
C935        F939   1.385       .  S
C935        F940   1.381       .  S
C935        F941   1.382       .  S
C938        F942   1.385       .  S
C938        F943   1.383       .  S
C938        F944   1.383       .  S
C945        C946   1.410       .  A
C945        C950   1.403       .  A
C945        H952   1.083       .  S
C946        C947   1.419       .  A
C947        C948   1.407       .  A
C947        C954   1.519       .  S
C948        C949   1.407       .  A
C948        H953   1.083       .  S
C949        C950   1.415       .  A
C950        C951   1.520       .  S
C951        F955   1.385       .  S
C951        F956   1.383       .  S
C951        F957   1.383       .  S
C954        F958   1.383       .  S
C954        F959   1.383       .  S
C954        F960   1.385       .  S
C961        C962   1.409       .  A
C961        C966   1.406       .  A
C961        H968   1.079       .  S
C962        C963   1.420       .  A
C963        C964   1.411       .  A
C963        C970   1.519       .  S
C964        C965   1.408       .  A
C964        H969   1.083       .  S
C965        C966   1.414       .  A
C966        C967   1.519       .  S
C967        F971   1.385       .  S
C967        F972   1.380       .  S
C967        F973   1.383       .  S
C970        F974   1.380       .  S
C970        F975   1.382       .  S
C970        F976   1.385       .  S
C977        C978   1.404       .  A
C977        C982   1.398       .  A
C977        H984   1.081       .  S
C978        C979   1.426       .  A
C979        C980   1.409       .  A
C979        C986   1.521       .  S
C980        C981   1.404       .  A
C980        H985   1.083       .  S
C981        C982   1.425       .  A
C982        C983   1.526       .  S
C983        F987   1.385       .  S
C983        F988   1.381       .  S
C983        F989   1.380       .  S
C986        F990   1.383       .  S
C986        F991   1.382       .  S
C986        F992   1.385       .  S
C993        C994   1.405       .  A
C993        C998   1.414       .  A
C993       H1000   1.083       .  S
C994        C995   1.413       .  A
C995        C996   1.403       .  A
C995       C1002   1.518       .  S
C996        C997   1.406       .  A
C996       H1001   1.083       .  S
C997        C998   1.418       .  A
C998        C999   1.516       .  S
C999       F1003   1.385       .  S
C999       F1004   1.382       .  S
C999       F1005   1.382       .  S
C1002      F1006   1.383       .  S
C1002      F1007   1.382       .  S
C1002      F1008   1.385       .  S
C1009      C1010   1.409       .  A
C1009      C1014   1.408       .  A
C1009      H1016   1.082       .  S
C1010      C1011   1.433       .  A
C1011      C1012   1.406       .  A
C1011      C1018   1.522       .  S
C1012      C1013   1.396       .  A
C1012      H1017   1.083       .  S
C1013      C1014   1.416       .  A
C1014      C1015   1.519       .  S
C1015      F1019   1.385       .  S
C1015      F1020   1.384       .  S
C1015      F1021   1.381       .  S
C1018      F1022   1.378       .  S
C1018      F1023   1.381       .  S
C1018      F1024   1.385       .  S
C1025      C1026   1.402       .  A
C1025      C1030   1.402       .  A
C1025      H1032   1.084       .  S
C1026      C1027   1.410       .  A
C1027      C1028   1.407       .  A
C1027      C1034   1.516       .  S
C1028      C1029   1.407       .  A
C1028      H1033   1.083       .  S
C1029      C1030   1.415       .  A
C1030      C1031   1.518       .  S
C1031      F1035   1.384   1_565  S
C1031      F1036   1.383       .  S
C1031      F1037   1.382       .  S
C1034      F1038   1.382       .  S
C1034      F1039   1.379       .  S
C1034      F1040   1.385       .  S
C1041      C1042   1.413       .  A
C1041      C1046   1.405       .  A
C1041      H1048   1.081       .  S
C1042      C1043   1.428       .  A
C1043      C1044   1.410       .  A
C1043      C1050   1.522       .  S
C1044      C1045   1.403       .  A
C1044      H1049   1.083       .  S
C1045      C1046   1.412       .  A
C1046      C1047   1.520       .  S
C1047      F1051   1.384       .  S
C1047      F1052   1.383       .  S
C1047      F1053   1.383       .  S
C1050      F1054   1.383       .  S
C1050      F1055   1.383       .  S
C1050      F1056   1.385       .  S
C1057      C1058   1.413       .  A
C1057      C1062   1.408       .  A
C1057      H1064   1.081       .  S
C1058      C1059   1.423       .  A
C1059      C1060   1.414       .  A
C1059      C1066   1.520       .  S
C1060      C1061   1.408       .  A
C1060      H1065   1.083       .  S
C1061      C1062   1.412       .  A
C1062      C1063   1.519       .  S
C1063      F1067   1.385       .  S
C1063      F1068   1.384       .  S
C1063      F1069   1.382       .  S
C1066      F1070   1.384       .  S
C1066      F1071   1.382       .  S
C1066      F1072   1.385       .  S
C1073      C1074   1.408       .  A
C1073      C1078   1.406       .  A
C1073      H1080   1.083       .  S
C1074      C1075   1.413       .  A
C1075      C1076   1.406       .  A
C1075      C1082   1.519       .  S
C1076      C1077   1.411       .  A
C1076      H1081   1.077       .  S
C1077      C1078   1.422       .  A
C1078      C1079   1.526       .  S
C1079      F1083   1.385       .  S
C1079      F1084   1.379       .  S
C1079      F1085   1.381       .  S
C1082      F1086   1.383       .  S
C1082      F1087   1.383       .  S
C1082      F1088   1.385       .  S
C1089      C1090   1.406       .  A
C1089      C1094   1.401       .  A
C1089      H1096   1.083       .  S
C1090      C1091   1.417       .  A
C1091      C1092   1.408       .  A
C1091      C1098   1.518       .  S
C1092      C1093   1.407       .  A
C1092      H1097   1.084       .  S
C1093      C1094   1.414       .  A
C1094      C1095   1.517       .  S
C1095      F1099   1.385       .  S
C1095      F1100   1.383       .  S
C1095      F1101   1.383       .  S
C1098      F1102   1.382       .  S
C1098      F1103   1.382       .  S
C1098      F1104   1.385       .  S
C1105      C1106   1.404       .  A
C1105      C1110   1.402       .  A
C1105      H1112   1.084       .  S
C1106      C1107   1.418       .  A
C1107      C1108   1.412       .  A
C1107      C1114   1.515       .  S
C1108      C1109   1.404       .  A
C1108      H1113   1.083       .  S
C1109      C1110   1.418       .  A
C1110      C1111   1.523       .  S
C1111      F1115   1.385       .  S
C1111      F1116   1.382       .  S
C1111      F1117   1.384       .  S
C1114      F1118   1.381       .  S
C1114      F1119   1.383       .  S
C1114      F1120   1.385       .  S
C1121      C1122   1.406       .  A
C1121      C1126   1.406       .  A
C1121      H1128   1.084       .  S
C1122      C1123   1.413       .  A
C1123      C1124   1.407       .  A
C1123      C1130   1.518       .  S
C1124      C1125   1.407       .  A
C1124      H1129   1.085       .  S
C1125      C1126   1.408       .  A
C1126      C1127   1.515       .  S
C1127      F1131   1.384       .  S
C1127      F1132   1.383       .  S
C1127      F1133   1.383       .  S
C1130      F1134   1.383       .  S
C1130      F1135   1.383       .  S
C1130      F1136   1.385   1_655  S
C1137      C1138   1.404       .  A
C1137      C1142   1.414       .  A
C1137      H1144   1.083       .  S
C1138      C1139   1.406       .  A
C1139      C1140   1.395       .  A
C1139      C1146   1.516       .  S
C1140      C1141   1.408       .  A
C1140      H1145   1.078       .  S
C1141      C1142   1.423       .  A
C1142      C1143   1.518       .  S
C1143      F1147   1.385       .  S
C1143      F1148   1.383       .  S
C1143      F1149   1.383       .  S
C1146      F1150   1.382       .  S
C1146      F1151   1.380       .  S
C1146      F1152   1.384       .  S
C1153      C1154   1.414       .  A
C1153      C1158   1.406       .  A
C1153      H1160   1.081       .  S
C1154      C1155   1.422       .  A
C1155      C1156   1.410       .  A
C1155      C1162   1.521       .  S
C1156      C1157   1.412       .  A
C1156      H1161   1.082       .  S
C1157      C1158   1.418       .  A
C1158      C1159   1.523       .  S
C1159      F1163   1.385       .  S
C1159      F1164   1.383       .  S
C1159      F1165   1.384       .  S
C1162      F1166   1.383       .  S
C1162      F1167   1.384       .  S
C1162      F1168   1.385       .  S
C1169      C1170   1.415       .  A
C1169      C1174   1.413       .  A
C1169      H1176   1.082       .  S
C1170      C1171   1.427       .  A
C1171      C1172   1.410       .  A
C1171      C1178   1.522       .  S
C1172      C1173   1.406       .  A
C1172      H1177   1.083       .  S
C1173      C1174   1.417       .  A
C1174      C1175   1.520       .  S
C1175      F1179   1.385       .  S
C1175      F1180   1.383       .  S
C1175      F1181   1.382       .  S
C1178      F1182   1.383       .  S
C1178      F1183   1.382       .  S
C1178      F1184   1.384       .  S
C1185      C1186   1.405       .  A
C1185      C1190   1.400       .  A
C1185      H1192   1.083       .  S
C1186      C1187   1.410       .  A
C1187      C1188   1.407       .  A
C1187      C1194   1.516       .  S
C1188      C1189   1.413       .  A
C1188      H1193   1.082       .  S
C1189      C1190   1.421       .  A
C1190      C1191   1.523       .  S
C1191      F1195   1.385       .  S
C1191      F1196   1.383       .  S
C1191      F1197   1.383       .  S
C1194      F1198   1.382       .  S
C1194      F1199   1.383       .  S
C1194      F1200   1.384       .  S
C1201      C1202   1.409       .  A
C1201      C1206   1.412       .  A
C1201      H1208   1.083       .  S
C1202      C1203   1.432       .  A
C1203      C1204   1.405       .  A
C1203      C1210   1.525       .  S
C1204      C1205   1.399       .  A
C1204      H1209   1.082       .  S
C1205      C1206   1.420       .  A
C1206      C1207   1.521       .  S
C1207      F1211   1.385       .  S
C1207      F1212   1.382       .  S
C1207      F1213   1.384       .  S
C1210      F1214   1.382       .  S
C1210      F1215   1.384       .  S
C1210      F1216   1.385       .  S
C1217      C1218   1.402       .  A
C1217      C1222   1.413       .  A
C1217      H1224   1.082       .  S
C1218      C1219   1.410       .  A
C1219      C1220   1.403       .  A
C1219      C1226   1.519       .  S
C1220      C1221   1.411       .  A
C1220      H1225   1.083       .  S
C1221      C1222   1.423       .  A
C1222      C1223   1.517       .  S
C1223      F1227   1.385       .  S
C1223      F1228   1.383       .  S
C1223      F1229   1.380       .  S
C1226      F1230   1.381       .  S
C1226      F1231   1.383       .  S
C1226      F1232   1.385       .  S
C1233      C1234   1.407       .  A
C1233      C1238   1.412       .  A
C1233      H1240   1.084       .  S
C1234      C1235   1.409       .  A
C1235      C1236   1.403       .  A
C1235      C1242   1.519       .  S
C1236      C1237   1.409       .  A
C1236      H1241   1.084       .  S
C1237      C1238   1.413       .  A
C1238      C1239   1.515       .  S
C1239      F1243   1.385       .  S
C1239      F1244   1.383       .  S
C1239      F1245   1.383       .  S
C1242      F1246   1.383       .  S
C1242      F1247   1.383       .  S
C1242      F1248   1.385   1_655  S
C1249      C1250   1.405       .  A
C1249      C1254   1.415       .  A
C1249      H1256   1.083       .  S
C1250      C1251   1.415       .  A
C1251      C1252   1.410       .  A
C1251      C1258   1.520       .  S
C1252      C1253   1.412       .  A
C1252      H1257   1.082       .  S
C1253      C1254   1.424       .  A
C1254      C1255   1.519       .  S
C1255      F1259   1.385       .  S
C1255      F1260   1.382       .  S
C1255      F1261   1.384       .  S
C1258      F1262   1.382       .  S
C1258      F1263   1.383       .  S
C1258      F1264   1.385       .  S
C1265      C1266   1.414       .  A
C1265      C1270   1.411       .  A
C1265      H1272   1.082       .  S
C1266      C1267   1.425       .  A
C1267      C1268   1.410       .  A
C1267      C1274   1.521       .  S
C1268      C1269   1.408       .  A
C1268      H1273   1.083       .  S
C1269      C1270   1.416       .  A
C1270      C1271   1.520       .  S
C1271      F1275   1.385       .  S
C1271      F1276   1.383       .  S
C1271      F1277   1.384       .  S
C1274      F1278   1.382       .  S
C1274      F1279   1.383       .  S
C1274      F1280   1.385       .  S
C1281      C1282   1.408       .  A
C1281      C1286   1.408       .  A
C1281      H1288   1.083       .  S
C1282      C1283   1.417       .  A
C1283      C1284   1.417       .  A
C1283      C1290   1.515       .  S
C1284      C1285   1.409       .  A
C1284      H1289   1.083       .  S
C1285      C1286   1.419       .  A
C1286      C1287   1.522       .  S
C1287      F1291   1.385       .  S
C1287      F1292   1.381       .  S
C1287      F1293   1.382       .  S
C1290      F1294   1.383       .  S
C1290      F1295   1.382       .  S
C1290      F1296   1.384       .  S
C1297      C1298   1.408       .  A
C1297      C1302   1.396       .  A
C1297      H1304   1.084       .  S
C1298      C1299   1.419       .  A
C1299      C1300   1.415       .  A
C1299      C1306   1.515       .  S
C1300      C1301   1.407       .  A
C1300      H1305   1.084       .  S
C1301      C1302   1.405       .  A
C1302      C1303   1.513       .  S
C1303      F1307   1.384       .  S
C1303      F1308   1.383       .  S
C1303      F1309   1.382       .  S
C1306      F1310   1.382       .  S
C1306      F1311   1.378       .  S
C1306      F1312   1.385       .  S
C1313      C1314   1.401       .  A
C1313      C1318   1.399       .  A
C1313      H1320   1.080       .  S
C1314      C1315   1.418       .  A
C1315      C1316   1.414       .  A
C1315      C1322   1.518       .  S
C1316      C1317   1.406       .  A
C1316      H1321   1.083       .  S
C1317      C1318   1.414       .  A
C1318      C1319   1.519       .  S
C1319      F1323   1.384       .  S
C1319      F1324   1.382       .  S
C1319      F1325   1.384       .  S
C1322      F1326   1.384       .  S
C1322      F1327   1.382       .  S
C1322      F1328   1.384       .  S
C1329      C1330   1.412       .  A
C1329      C1334   1.414       .  A
C1329      H1336   1.082       .  S
C1330      C1331   1.420       .  A
C1331      C1332   1.411       .  A
C1331      C1338   1.520       .  S
C1332      C1333   1.413       .  A
C1332      H1337   1.082       .  S
C1333      C1334   1.421       .  A
C1334      C1335   1.520       .  S
C1335      F1339   1.385       .  S
C1335      F1340   1.383       .  S
C1335      F1341   1.383       .  S
C1338      F1342   1.382       .  S
C1338      F1343   1.382       .  S
C1338      F1344   1.385       .  S
C1345      C1346   1.413       .  A
C1345      C1350   1.410       .  A
C1345      H1352   1.082       .  S
C1346      C1347   1.422       .  A
C1347      C1348   1.406       .  A
C1347      C1354   1.522       .  S
C1348      C1349   1.408       .  A
C1348      H1353   1.081       .  S
C1349      C1350   1.419       .  A
C1350      C1351   1.520       .  S
C1351      F1355   1.385       .  S
C1351      F1356   1.383       .  S
C1351      F1357   1.383       .  S
C1354      F1358   1.383       .  S
C1354      F1359   1.384       .  S
C1354      F1360   1.384       .  S
C1361      C1362   1.404       .  A
C1361      C1366   1.403       .  A
C1361      H1368   1.081       .  S
C1362      C1363   1.428       .  A
C1363      C1364   1.413       .  A
C1363      C1370   1.516       .  S
C1364      C1365   1.403       .  A
C1364      H1369   1.082       .  S
C1365      C1366   1.427       .  A
C1366      C1367   1.521       .  S
C1367      F1371   1.385       .  S
C1367      F1372   1.383       .  S
C1367      F1373   1.381       .  S
C1370      F1374   1.383       .  S
C1370      F1375   1.381       .  S
C1370      F1376   1.385       .  S
C1377      C1378   1.410       .  A
C1377      C1382   1.409       .  A
C1377      H1384   1.083       .  S
C1378      C1379   1.413       .  A
C1379      C1380   1.413       .  A
C1379      C1386   1.517       .  S
C1380      C1381   1.408       .  A
C1380      H1385   1.083       .  S
C1381      C1382   1.411       .  A
C1382      C1383   1.517       .  S
C1383      F1387   1.383   1_455  S
C1383      F1388   1.383       .  S
C1383      F1389   1.383       .  S
C1386      F1390   1.383       .  S
C1386      F1391   1.382       .  S
C1386      F1392   1.384       .  S
C1393      C1394   1.411       .  A
C1393      C1398   1.415       .  A
C1393      H1400   1.082       .  S
C1394      C1395   1.424       .  A
C1395      C1396   1.405       .  A
C1395      C1402   1.521       .  S
C1396      C1397   1.404       .  A
C1396      H1401   1.083       .  S
C1397      C1398   1.420       .  A
C1398      C1399   1.518       .  S
C1399      F1403   1.384       .  S
C1399      F1404   1.383       .  S
C1399      F1405   1.382       .  S
C1402      F1406   1.383       .  S
C1402      F1407   1.385       .  S
C1402      F1408   1.384       .  S
C1409      C1410   1.416       .  A
C1409      C1414   1.406       .  A
C1409      H1416   1.081       .  S
C1410      C1411   1.425       .  A
C1411      C1412   1.415       .  A
C1411      C1418   1.517       .  S
C1412      C1413   1.407       .  A
C1412      H1417   1.083       .  S
C1413      C1414   1.413       .  A
C1414      C1415   1.522       .  S
C1415      F1419   1.385       .  S
C1415      F1420   1.383       .  S
C1415      F1421   1.383       .  S
C1418      F1422   1.385       .  S
C1418      F1423   1.382       .  S
C1418      F1424   1.383       .  S
C1425      C1426   1.417       .  A
C1425      C1430   1.410       .  A
C1425      H1432   1.081       .  S
C1426      C1427   1.425       .  A
C1427      C1428   1.410       .  A
C1427      C1434   1.519       .  S
C1428      C1429   1.406       .  A
C1428      H1433   1.083       .  S
C1429      C1430   1.412       .  A
C1430      C1431   1.518       .  S
C1431      F1435   1.385       .  S
C1431      F1436   1.383       .  S
C1431      F1437   1.383       .  S
C1434      F1438   1.383       .  S
C1434      F1439   1.382       .  S
C1434      F1440   1.385       .  S
C1441      C1442   1.403       .  A
C1441      C1446   1.402       .  A
C1441      H1448   1.084       .  S
C1442      C1443   1.419       .  A
C1443      C1444   1.413       .  A
C1443      C1450   1.518       .  S
C1444      C1445   1.409       .  A
C1444      H1449   1.082       .  S
C1445      C1446   1.418       .  A
C1446      C1447   1.515       .  S
C1447      F1451   1.385       .  S
C1447      F1452   1.380       .  S
C1447      F1453   1.384       .  S
C1450      F1454   1.383       .  S
C1450      F1455   1.383       .  S
C1450      F1456   1.384       .  S
C1457      C1458   1.406       .  A
C1457      C1462   1.406       .  A
C1457      H1464   1.084       .  S
C1458      C1459   1.412       .  A
C1459      C1460   1.409       .  A
C1459      C1466   1.517       .  S
C1460      C1461   1.407       .  A
C1460      H1465   1.083       .  S
C1461      C1462   1.411       .  A
C1462      C1463   1.515       .  S
C1463      F1467   1.384       .  S
C1463      F1468   1.382       .  S
C1463      F1469   1.382       .  S
C1466      F1470   1.383       .  S
C1466      F1471   1.383       .  S
C1466      F1472   1.382       .  S
C1473      C1474   1.404       .  A
C1473      C1478   1.410       .  A
C1473      H1480   1.084       .  S
C1474      C1475   1.424       .  A
C1475      C1476   1.405       .  A
C1475      C1482   1.516       .  S
C1476      C1477   1.398       .  A
C1476      H1481   1.085       .  S
C1477      C1478   1.420       .  A
C1478      C1479   1.515       .  S
C1479      F1483   1.383       .  S
C1479      F1484   1.381   1_556  S
C1479      F1485   1.381       .  S
C1482      F1486   1.383       .  S
C1482      F1487   1.383       .  S
C1482      F1488   1.384       .  S
C1489      C1490   1.415       .  A
C1489      C1494   1.407       .  A
C1489      H1496   1.081       .  S
C1490      C1491   1.427       .  A
C1491      C1492   1.410       .  A
C1491      C1498   1.519       .  S
C1492      C1493   1.401       .  A
C1492      H1497   1.083       .  S
C1493      C1494   1.410       .  A
C1494      C1495   1.520       .  S
C1495      F1499   1.384       .  S
C1495      F1500   1.384       .  S
C1495      F1501   1.383       .  S
C1498      F1502   1.383       .  S
C1498      F1503   1.382       .  S
C1498      F1504   1.385       .  S
C1505      C1506   1.407       .  A
C1505      C1510   1.410       .  A
C1505      H1512   1.084       .  S
C1506      C1507   1.414       .  A
C1507      C1508   1.403       .  A
C1507      C1514   1.521       .  S
C1508      C1509   1.410       .  A
C1508      H1513   1.083       .  S
C1509      C1510   1.419       .  A
C1510      C1511   1.516       .  S
C1511      F1515   1.385       .  S
C1511      F1516   1.381       .  S
C1511      F1517   1.383       .  S
C1514      F1518   1.382       .  S
C1514      F1519   1.384       .  S
C1514      F1520   1.384       .  S
C1521      C1522   1.408       .  A
C1521      C1526   1.411       .  A
C1521      H1528   1.082       .  S
C1522      C1523   1.411       .  A
C1523      C1524   1.406       .  A
C1523      C1530   1.517       .  S
C1524      C1525   1.408       .  A
C1524      H1529   1.084       .  S
C1525      C1526   1.411       .  A
C1526      C1527   1.515       .  S
C1527      F1531   1.384       .  S
C1527      F1532   1.383       .  S
C1527      F1533   1.383       .  S
C1530      F1534   1.383       .  S
C1530      F1535   1.382       .  S
C1530      F1536   1.384       .  S
C1537      C1538   1.410       .  A
C1537      C1542   1.411       .  A
C1537      H1544   1.083       .  S
C1538      C1539   1.415       .  A
C1539      C1540   1.402       .  A
C1539      C1546   1.519       .  S
C1540      C1541   1.403       .  A
C1540      H1545   1.084       .  S
C1541      C1542   1.410       .  A
C1542      C1543   1.516       .  S
C1543      F1547   1.385       .  S
C1543      F1548   1.383       .  S
C1543      F1549   1.383       .  S
C1546      F1550   1.382       .  S
C1546      F1551   1.383       .  S
C1546      F1552   1.385       .  S
C1553      C1554   1.410       .  A
C1553      C1558   1.413       .  A
C1553      H1560   1.083       .  S
C1554      C1555   1.417       .  A
C1555      C1556   1.400       .  A
C1555      C1562   1.520       .  S
C1556      C1557   1.403       .  A
C1556      H1561   1.084       .  S
C1557      C1558   1.414       .  A
C1558      C1559   1.516       .  S
C1559      F1563   1.385       .  S
C1559      F1564   1.383       .  S
C1559      F1565   1.382       .  S
C1562      F1566   1.383       .  S
C1562      F1567   1.384       .  S
C1562      F1568   1.385       .  S
C1569      C1570   1.405       .  A
C1569      C1574   1.410       .  A
C1569      H1576   1.084       .  S
C1570      C1571   1.409       .  A
C1571      C1572   1.404       .  A
C1571      C1578   1.514       .  S
C1572      C1573   1.407       .  A
C1572      H1577   1.083       .  S
C1573      C1574   1.418       .  A
C1574      C1575   1.518       .  S
C1575      F1579   1.385       .  S
C1575      F1580   1.383       .  S
C1575      F1581   1.384       .  S
C1578      F1582   1.383       .  S
C1578      F1583   1.381       .  S
C1578      F1584   1.384       .  S
C1585      C1586   1.411       .  A
C1585      C1590   1.405       .  A
C1585      H1592   1.082       .  S
C1586      C1587   1.422       .  A
C1587      C1588   1.408       .  A
C1587      C1594   1.519       .  S
C1588      C1589   1.407       .  A
C1588      H1593   1.083       .  S
C1589      C1590   1.415       .  A
C1590      C1591   1.521       .  S
C1591      F1595   1.385       .  S
C1591      F1596   1.382       .  S
C1591      F1597   1.384       .  S
C1594      F1598   1.380       .  S
C1594      F1599   1.383       .  S
C1594      F1600   1.385       .  S
C1601      C1602   1.410       .  A
C1601      C1606   1.405       .  A
C1601      H1608   1.083       .  S
C1602      C1603   1.423       .  A
C1603      C1604   1.415       .  A
C1603      C1610   1.518       .  S
C1604      C1605   1.404       .  A
C1604      H1609   1.083       .  S
C1605      C1606   1.413       .  A
C1606      C1607   1.520       .  S
C1607      F1611   1.385       .  S
C1607      F1612   1.382       .  S
C1607      F1613   1.384       .  S
C1610      F1614   1.382       .  S
C1610      F1615   1.384       .  S
C1610      F1616   1.384       .  S
C1617      C1618   1.408       .  A
C1617      C1622   1.402       .  A
C1617      H1624   1.083       .  S
C1618      C1619   1.419       .  A
C1619      C1620   1.409       .  A
C1619      C1626   1.518       .  S
C1620      C1621   1.402       .  A
C1620      H1625   1.084       .  S
C1621      C1622   1.409       .  A
C1622      C1623   1.518       .  S
C1623      F1627   1.384       .  S
C1623      F1628   1.383       .  S
C1623      F1629   1.382       .  S
C1626      F1630   1.382       .  S
C1626      F1631   1.383       .  S
C1626      F1632   1.383       .  S
C1633      C1634   1.404       .  A
C1633      C1638   1.402       .  A
C1633      H1640   1.083       .  S
C1634      C1635   1.409       .  A
C1635      C1636   1.408       .  A
C1635      C1642   1.513       .  S
C1636      C1637   1.409       .  A
C1636      H1641   1.083       .  S
C1637      C1638   1.415       .  A
C1638      C1639   1.521       .  S
C1639      F1643   1.385       .  S
C1639      F1644   1.382       .  S
C1639      F1645   1.384       .  S
C1642      F1646   1.383       .  S
C1642      F1647   1.382       .  S
C1642      F1648   1.384       .  S
C1649      C1650   1.397       .  A
C1649      C1654   1.399       .  A
C1649      H1656   1.083       .  S
C1650      C1651   1.411       .  A
C1651      C1652   1.415       .  A
C1651      C1658   1.515       .  S
C1652      C1653   1.415       .  A
C1652      H1657   1.082       .  S
C1653      C1654   1.435       .  A
C1654      C1655   1.530       .  S
C1655      F1659   1.385       .  S
C1655      F1660   1.384       .  S
C1655      F1661   1.381       .  S
C1658      F1662   1.383       .  S
C1658      F1663   1.383       .  S
C1658      F1664   1.384       .  S
C1665      C1666   1.407       .  A
C1665      C1670   1.414       .  A
C1665      H1672   1.082       .  S
C1666      C1667   1.427       .  A
C1667      C1668   1.405       .  A
C1667      C1674   1.527       .  S
C1668      C1669   1.406       .  A
C1668      H1673   1.081       .  S
C1669      C1670   1.426       .  A
C1670      C1671   1.519       .  S
C1671      F1675   1.385       .  S
C1671      F1676   1.383       .  S
C1671      F1677   1.379       .  S
C1674      F1678   1.382       .  S
C1674      F1679   1.384       .  S
C1674      F1680   1.385       .  S
