geometry optimzed in LAMMPS
_audit_creation_date              2020-12-01 
_audit_creation_method            'lammps2cif' 
_symmetry_space_group_name_H-M    'P1' 
_symmetry_Int_Tables_number       1 
_symmetry_cell_setting            triclinic 
loop_ 
_symmetry_equiv_pos_as_xyz 
  x,y,z 
_cell_length_a                    37.18174783 
_cell_length_b                    23.866743327106764 
_cell_length_c                    39.690961867217894 
_cell_angle_alpha                 90.34883193989323 
_cell_angle_beta                  89.95848087754483 
_cell_angle_gamma                 89.97839294219135 
loop_ 
_atom_site_label 
_atom_site_type_symbol 
_atom_site_fract_x 
_atom_site_fract_y 
_atom_site_fract_z 
_atom_site_charge 
O1          O  0.10601096  0.30632383  0.36955262    -0.74100
O2          O  0.15660955  0.19140134  0.41666518    -0.74100
O3          O  0.10593894  0.19401776  0.36800148    -0.74200
O4          O  0.15692599  0.30508675  0.41839449    -0.74200
O5          O  0.11308795  0.30604333  0.45666825    -0.74100
O6          O  0.06376719  0.19057589  0.40793416    -0.74100
O7          O  0.11446881  0.19244995  0.45662252    -0.74100
O8          O  0.06202615  0.30287891  0.40787487    -0.74200
Ni9        Ni  0.13301866  0.24928660  0.39183587     1.25400
Ni10       Ni  0.08690965  0.24802579  0.43378316     1.25400
C11         C  0.07507291  0.32161215  0.38035202     0.88100
C12         C  0.14369715  0.17262643  0.44431113     0.88000
C13         C  0.07622323  0.17467319  0.37936005     0.88100
C14         C  0.14319219  0.32462676  0.44565507     0.88200
C15         C  0.95381905  0.03463361  0.29276145     0.02600
C16         C  0.99176436  0.03211641  0.29303176     0.02600
C17         C  0.00972844  0.99637890  0.27052156    -0.17900
C18         C  0.99071769  0.96380835  0.24726005     0.02600
C19         C  0.95281845  0.96687322  0.24660136     0.02600
C20         C  0.93479858  0.00204150  0.26939333    -0.17900
H21         H  0.90567100  0.00424381  0.26876987     0.04600
H22         H  0.03885959  0.99395978  0.27108254     0.04600
C23         C  0.95451283  0.46713417  0.29366529     0.02600
C24         C  0.99247119  0.46494511  0.29412377     0.02600
C25         C  0.01187301  0.49714224  0.27112369    -0.17900
C26         C  0.99450074  0.53223003  0.24812166     0.02600
C27         C  0.95641362  0.53374318  0.24723356     0.02600
C28         C  0.93701551  0.50121376  0.27019294    -0.17900
H29         H  0.90786527  0.50296217  0.27012987     0.04600
H30         H  0.04098899  0.49432617  0.27083541     0.04600
O31         O  0.15739343  0.80645216  0.12318268    -0.74100
O32         O  0.10916967  0.69207026  0.17220915    -0.74100
O33         O  0.15891426  0.69258978  0.12279254    -0.74200
O34         O  0.10691600  0.80382277  0.17279393    -0.74200
O35         O  0.06388655  0.80342735  0.13359344    -0.74100
O36         O  0.11548044  0.69089540  0.08418407    -0.74100
O37         O  0.06547538  0.69067676  0.13376861    -0.74100
O38         O  0.11429588  0.80517701  0.08422177    -0.74200
Ni39       Ni  0.13476567  0.74893648  0.14895838     1.25400
Ni40       Ni  0.08832341  0.74752628  0.10742769     1.25400
C41         C  0.14389456  0.82505796  0.09577528     0.88100
C42         C  0.07894009  0.67356786  0.16158831     0.88000
C43         C  0.14526654  0.67205189  0.09577534     0.88100
C44         C  0.07630497  0.82040701  0.16193317     0.88200
C45         C  0.72051148  0.49959583  0.02084840    -0.02100
C46         C  0.72607776  0.00185803  0.02247360    -0.02100
O47         O  0.55974914  0.30297158  0.13284333    -0.74100
O48         O  0.61326600  0.19258002  0.08373551    -0.74100
O49         O  0.56233016  0.19050188  0.13263681    -0.74200
O50         O  0.61112635  0.30664419  0.08387096    -0.74200
O51         O  0.65378532  0.30909427  0.12324866    -0.74100
O52         O  0.60525757  0.19382725  0.17179891    -0.74100
O53         O  0.65615246  0.19518349  0.12280266    -0.74100
O54         O  0.60296814  0.30591873  0.17189520    -0.74200
Ni55       Ni  0.58520224  0.24815132  0.10671878     1.25400
Ni56       Ni  0.63118057  0.25104888  0.14868136     1.25400
C57         C  0.57213628  0.32102461  0.16094237     0.88100
C58         C  0.64323274  0.17477021  0.09541598     0.88000
C59         C  0.57517538  0.17478298  0.16101260     0.88100
C60         C  0.64025320  0.32767114  0.09585040     0.88200
O61         O  0.65938464  0.69610523  0.41791910    -0.74100
O62         O  0.60741907  0.80921022  0.37020547    -0.74100
O63         O  0.65845994  0.81030165  0.41890996    -0.74200
O64         O  0.60817118  0.69661768  0.36937174    -0.74200
O65         O  0.56570021  0.69442474  0.40907838    -0.74100
O66         O  0.61568854  0.80923944  0.45815097    -0.74100
O67         O  0.56421217  0.80722036  0.40929920    -0.74100
O68         O  0.61667132  0.69492064  0.45728009    -0.74200
Ni69       Ni  0.63498670  0.75316461  0.39281981     1.25400
Ni70       Ni  0.58916336  0.75158005  0.43498428     1.25400
C71         C  0.64619296  0.67581362  0.44507470     0.88100
C72         C  0.57673031  0.82508772  0.38128913     0.88000
C73         C  0.64521181  0.82918655  0.44656895     0.88100
C74         C  0.57847362  0.67732161  0.38086930     0.88200
O75         O  0.33254845  0.69490476  0.46145947    -0.74100
O76         O  0.38438146  0.80567021  0.41098035    -0.74100
O77         O  0.33283213  0.80907165  0.45930525    -0.74200
O78         O  0.38450533  0.69259553  0.41342848    -0.74200
O79         O  0.34294612  0.69234457  0.37286048    -0.74100
O80         O  0.28973581  0.80493089  0.42042920    -0.74100
O81         O  0.34106139  0.80402043  0.37217402    -0.74100
O82         O  0.29123566  0.69102285  0.42090555    -0.74200
Ni83       Ni  0.35998597  0.75065490  0.43786212     1.25400
Ni84       Ni  0.31462215  0.74797547  0.39534411     1.25400
C85         C  0.30372165  0.67369902  0.44903252     0.88100
C86         C  0.37149768  0.82189508  0.38269910     0.88000
C87         C  0.30301922  0.82683469  0.44724641     0.88100
C88         C  0.37284719  0.67502161  0.38492605     0.88200
C89         C  0.22115065  0.00018319  0.02100221    -0.02100
O90         O  0.38145376  0.19391644  0.13624248    -0.74100
O91         O  0.33115942  0.30760482  0.08749311    -0.74100
O92         O  0.38038111  0.30668856  0.13778957    -0.74200
O93         O  0.33199649  0.19328684  0.08571829    -0.74200
O94         O  0.28792703  0.19165146  0.12372896    -0.74100
O95         O  0.33644758  0.30338534  0.17602699    -0.74100
O96         O  0.28719461  0.30574039  0.12559829    -0.74100
O97         O  0.33698751  0.19119327  0.17406850    -0.74200
Ni98       Ni  0.35771903  0.25042595  0.11032295     1.25400
Ni99       Ni  0.31044275  0.24798666  0.15104942     1.25400
C100        C  0.36788733  0.17516131  0.16359525     0.88100
C101        C  0.30109366  0.32614999  0.09877710     0.88000
C102        C  0.36696266  0.32194623  0.16614498     0.88100
C103        C  0.30219484  0.17300504  0.09646788     0.88200
C104        C  0.22430002  0.49769343  0.02043315    -0.02100
C105        C  0.49104938  0.02951271  0.24622304     0.02600
C106        C  0.45303197  0.02899548  0.24639637     0.02600
C107        C  0.43492785  0.99407914  0.26898028    -0.17900
C108        C  0.45373200  0.96055044  0.29196837     0.02600
C109        C  0.49184261  0.96173042  0.29218699     0.02600
C110        C  0.50989167  0.99584414  0.26902597    -0.17900
H111        H  0.53905543  0.99605627  0.26858213     0.04600
H112        H  0.40576128  0.99443648  0.26943763     0.04600
C113        C  0.45320197  0.45974869  0.25451310     0.02600
C114        C  0.49119429  0.45891174  0.25278548     0.02600
C115        C  0.51111776  0.49118546  0.27579480    -0.17900
C116        C  0.49406038  0.52515877  0.29987540     0.02600
C117        C  0.45615599  0.52565661  0.30162680     0.02600
C118        C  0.43619748  0.49257319  0.27918688    -0.17900
H119        H  0.40705221  0.49379121  0.28024944     0.04600
H120        H  0.54025445  0.49031575  0.27480862     0.04600
O121        O  0.83371816  0.19516388  0.45707410    -0.74100
O122        O  0.88247230  0.31002093  0.40752598    -0.74100
O123        O  0.83243454  0.30915607  0.45719072    -0.74200
O124        O  0.88431770  0.19768202  0.40736021    -0.74200
O125        O  0.84049475  0.19542702  0.36889624    -0.74100
O126        O  0.78920642  0.30764339  0.41832521    -0.74100
O127        O  0.83893613  0.30732758  0.36891834    -0.74100
O128        O  0.79021802  0.19412389  0.41854478    -0.74200
Ni129      Ni  0.85970536  0.25298188  0.43382691     1.25400
Ni130      Ni  0.81307181  0.25099523  0.39244929     1.25400
C131        C  0.80382956  0.17558177  0.44591355     0.88100
C132        C  0.86920928  0.32593291  0.37936325     0.88000
C133        C  0.80268485  0.32783577  0.44547475     0.88100
C134        C  0.87143820  0.17992258  0.37938701     0.88200
O135        O  0.88626775  0.69335692  0.13132359    -0.74100
O136        O  0.83355934  0.80391066  0.08212469    -0.74100
O137        O  0.88390924  0.80599109  0.13143454    -0.74200
O138        O  0.83502032  0.68962098  0.08216854    -0.74200
O139        O  0.79155160  0.69054705  0.12081304    -0.74100
O140        O  0.84119420  0.80239677  0.17087818    -0.74100
O141        O  0.79105537  0.80405191  0.12164505    -0.74100
O142        O  0.84236547  0.69025018  0.16969156    -0.74200
Ni143      Ni  0.86116748  0.74818553  0.10521305     1.25400
Ni144      Ni  0.81494447  0.74671495  0.14699899     1.25400
C145        C  0.87338460  0.67491516  0.15902896     0.88100
C146        C  0.80398936  0.82323142  0.09404774     0.88000
C147        C  0.87093037  0.82187644  0.15986864     0.88100
C148        C  0.80502623  0.67088450  0.09355256     0.88200
C149        C  0.28244065  0.37194992  0.08057057    -0.05100
C150        C  0.30164709  0.40495821  0.05765339    -0.32500
C151        C  0.28485153  0.44740144  0.03904426     0.36700
C152        C  0.24735959  0.45820985  0.04317356    -0.05500
C153        C  0.22855550  0.42434526  0.06647930    -0.32400
C154        C  0.24553627  0.38242935  0.08503566     0.36600
H155        H  0.33001595  0.39715293  0.05346167     0.17000
O156        O  0.30491352  0.47332416  0.01467967    -0.59900
H157        H  0.19985150  0.42977011  0.06983955     0.17000
O158        O  0.22531262  0.35084634  0.10671279    -0.60000
H159        H  0.21633816  0.31895826  0.09295866     0.44000
H160        H  0.32371583  0.49479122  0.02691672     0.44000
C161        C  0.38770663  0.35924312  0.18861809    -0.05100
C162        C  0.40914375  0.40205356  0.17517134    -0.32500
C163        C  0.43035467  0.43579817  0.19632522     0.36700
C164        C  0.43045665  0.42636521  0.23131877    -0.05500
C165        C  0.40884674  0.38392607  0.24470955    -0.32400
C166        C  0.38763337  0.35043911  0.22370641     0.36600
H167        H  0.40934665  0.40947522  0.14826711     0.17000
O168        O  0.45006059  0.47883242  0.18286335    -0.59900
H169        H  0.40906759  0.37594651  0.27156140     0.17000
O170        O  0.36865055  0.30696019  0.23751354    -0.60000
H171        H  0.34625328  0.32409636  0.24642057     0.44000
H172        H  0.46876064  0.46067343  0.16869462     0.44000
C173        C  0.38915747  0.13712858  0.18441341    -0.05100
C174        C  0.41291077  0.16004100  0.20814176    -0.32500
C175        C  0.43361248  0.12520451  0.22861624     0.36700
C176        C  0.43137408  0.06660745  0.22484188    -0.05500
C177        C  0.40692888  0.04372989  0.20151081    -0.32400
C178        C  0.38593672  0.07873032  0.18122969     0.36600
H179        H  0.41506928  0.20511432  0.21104785     0.17000
O180        O  0.45542260  0.14874803  0.25267935    -0.59900
H181        H  0.40439775  0.99868853  0.19888960     0.17000
O182        O  0.36207421  0.05564327  0.15876630    -0.60000
H183        H  0.37511303  0.05421148  0.13697305     0.44000
H184        H  0.44052414  0.15049519  0.27339283     0.44000
C185        C  0.28390563  0.12679327  0.07781613    -0.05100
C186        C  0.25907601  0.09306158  0.09485713    -0.32500
C187        C  0.24000866  0.05018559  0.07841730     0.36700
C188        C  0.24513382  0.03995332  0.04326295    -0.05500
C189        C  0.27023665  0.07478724  0.02647690    -0.32400
C190        C  0.29000127  0.11633314  0.04338602     0.36600
H191        H  0.25375315  0.10046926  0.12136025     0.17000
O192        O  0.21392372  0.02327495  0.09662035    -0.59900
H193        H  0.27425133  0.07005691  0.99957287     0.17000
O194        O  0.31380394  0.14835707  0.02544924    -0.60000
H195        H  0.33650406  0.12651874  0.02513892     0.44000
H196        H  0.22690999  0.00166103  0.11409459     0.44000
C197        C  0.24610634  0.53995020  0.49941950    -0.09500
C198        C  0.27044033  0.57604323  0.01723017    -0.32500
C199        C  0.29004793  0.61829256  0.00128913     0.36700
C200        C  0.28458908  0.62796011  0.46678446    -0.05500
C201        C  0.26095152  0.59334270  0.44866282    -0.32400
C202        C  0.24141334  0.55054170  0.46437439     0.36600
H203        H  0.27367378  0.57133635  0.04418234     0.17000
O204        O  0.31210705  0.65196278  0.02027505    -0.59900
H205        H  0.25698777  0.59992809  0.42193162     0.17000
O206        O  0.21716216  0.52120712  0.44509509    -0.60000
H207        H  0.19935613  0.54891885  0.43691484     0.44000
H208        H  0.33488187  0.63066396  0.02251369     0.44000
C209        C  0.28357126  0.87324760  0.46439546    -0.05100
C210        C  0.24691866  0.88097672  0.45808759    -0.32500
C211        C  0.22731845  0.92306469  0.47453852     0.36700
C212        C  0.24415904  0.95975101  0.49820294    -0.05500
C213        C  0.28116303  0.95104888  0.00410848    -0.32400
C214        C  0.30048289  0.90932112  0.98702957     0.36600
H215        H  0.23289138  0.85324295  0.44083330     0.17000
O216        O  0.19106048  0.92612476  0.46852256    -0.59900
H217        H  0.29561592  0.97463821  0.02301485     0.17000
O218        O  0.33656042  0.90392408  0.99342756    -0.60000
H219        H  0.34861539  0.92796065  0.97653667     0.44000
H220        H  0.18851082  0.93670016  0.44450429     0.44000
C221        C  0.39237455  0.85925574  0.36054314    -0.05100
C222        C  0.38681460  0.85534418  0.32560600    -0.32500
C223        C  0.40685830  0.88761329  0.30328129     0.36700
C224        C  0.43259739  0.92570454  0.31565726    -0.05500
C225        C  0.43791314  0.93042534  0.35062892    -0.32400
C226        C  0.41827544  0.89712127  0.37304494     0.36600
H227        H  0.36743118  0.82594366  0.31536078     0.17000
O228        O  0.40144882  0.88096961  0.26930027    -0.59900
H229        H  0.45738048  0.95997635  0.36054264     0.17000
O230        O  0.42444123  0.90228325  0.40698012    -0.60000
H231        H  0.40620167  0.92947784  0.41517308     0.44000
H232        H  0.41914463  0.85219520  0.26208054     0.44000
C233        C  0.39489021  0.63655176  0.36460057    -0.05100
C234        C  0.40068232  0.64914391  0.33056464    -0.32500
C235        C  0.42154343  0.61390567  0.31026948     0.36700
C236        C  0.43639976  0.56483350  0.32379479    -0.05500
C237        C  0.43036268  0.55178674  0.35776130    -0.32400
C238        C  0.41034835  0.58802231  0.37840245     0.36600
H239        H  0.38932020  0.68683287  0.31978843     0.17000
O240        O  0.42752813  0.62781212  0.27725216    -0.59900
H241        H  0.44081090  0.51323073  0.36814710     0.17000
O242        O  0.40538826  0.57508433  0.41170471    -0.60000
H243        H  0.38229819  0.55434814  0.41252249     0.44000
H244        H  0.40645279  0.61301835  0.26474959     0.44000
C245        C  0.55431581  0.86080049  0.35997789    -0.05100
C246        C  0.56094342  0.91837653  0.35778888    -0.32500
C247        C  0.54039440  0.95175648  0.33616870     0.36700
C248        C  0.51356904  0.92716495  0.31567790    -0.05500
C249        C  0.50759726  0.86918870  0.31762348    -0.32400
C250        C  0.52736660  0.83627414  0.33996253     0.36600
H251        H  0.58185165  0.93744770  0.37301175     0.17000
O252        O  0.54659418  0.00837991  0.33535220    -0.59900
H253        H  0.48753053  0.84935601  0.30178030     0.17000
O254        O  0.52034146  0.77997196  0.34199929    -0.60000
H255        H  0.53466962  0.76252188  0.32366244     0.44000
H256        H  0.52913797  0.02485719  0.35151270     0.44000
C257        C  0.55810561  0.63624677  0.36064681    -0.05100
C258        C  0.55776715  0.64134239  0.32545297    -0.32500
C259        C  0.53668780  0.60568942  0.30563638     0.36700
C260        C  0.51640511  0.56297798  0.32083326    -0.05500
C261        C  0.51792910  0.55624357  0.35588527    -0.32400
C262        C  0.53811328  0.59309763  0.37587475     0.36600
H263        H  0.57299696  0.67425972  0.31332585     0.17000
O264        O  0.53580778  0.61318799  0.27140970    -0.59900
H265        H  0.50361256  0.52221293  0.36776496     0.17000
O266        O  0.53840124  0.58621544  0.41016053    -0.60000
H267        H  0.55997564  0.56309160  0.41483375     0.44000
H268        H  0.51458403  0.63738715  0.26730841     0.44000
C269        C  0.51085164  0.42414011  0.22776156    -0.05100
C270        C  0.50465214  0.36616276  0.22608455    -0.32500
C271        C  0.52355151  0.33269137  0.20314383     0.36700
C272        C  0.54971937  0.35688115  0.18223617    -0.05500
C273        C  0.55590199  0.41462140  0.18356727    -0.32400
C274        C  0.53647608  0.44841482  0.20606277     0.36600
H275        H  0.48549341  0.34669661  0.24292271     0.17000
O276        O  0.51745260  0.27599820  0.20231821    -0.59900
H277        H  0.57595153  0.43339422  0.16733803     0.17000
O278        O  0.54185914  0.50529015  0.20605575    -0.60000
H279        H  0.56538731  0.51116970  0.21728641     0.44000
H280        H  0.49729768  0.27069803  0.18626027     0.44000
C281        C  0.55429200  0.13634432  0.18252971    -0.05100
C282        C  0.53198920  0.09528527  0.16802574    -0.32500
C283        C  0.51106215  0.06009968  0.18839130     0.36700
C284        C  0.51210480  0.06625668  0.22366517    -0.05500
C285        C  0.53438227  0.10717165  0.23809059    -0.32400
C286        C  0.55528928  0.14208875  0.21790763     0.36600
H287        H  0.53105475  0.09009000  0.14090479     0.17000
O288        O  0.49094663  0.01828657  0.17383755    -0.59900
H289        H  0.53518529  0.11250420  0.26522068     0.17000
O290        O  0.57514157  0.18368907  0.23298093    -0.60000
H291        H  0.59759220  0.16519357  0.24054251     0.44000
H292        H  0.47179180  0.03764262  0.16100403     0.44000
C293        C  0.70326543  0.96139623  0.49961399    -0.05100
C294        C  0.67456675  0.93219868  0.51504863    -0.32500
C295        C  0.65481447  0.89092209  0.49804829     0.36700
C296        C  0.66438743  0.87482528  0.46505406    -0.05500
C297        C  0.69349116  0.90208685  0.44968323    -0.32400
C298        C  0.71294285  0.94433345  0.46636928     0.36600
H299        H  0.66640295  0.94236918  0.04110035     0.17000
O300        O  0.62716808  0.86500238  0.51470379    -0.59900
H301        H  0.70193469  0.88988650  0.42455967     0.17000
O302        O  0.74313676  0.96466521  0.45077451    -0.60000
H303        H  0.73437001  0.98560963  0.43088404     0.44000
H304        H  0.60594998  0.88949399  0.51124544     0.44000
C305        C  0.66317987  0.12976360  0.07732525    -0.05100
C306        C  0.69817869  0.11613001  0.08746176    -0.32500
C307        C  0.71821145  0.07488315  0.07060208     0.36700
C308        C  0.70274423  0.04299560  0.04397442    -0.05500
C309        C  0.66756794  0.05788214  0.03372029    -0.32400
C310        C  0.64802286  0.10021131  0.04997905     0.36600
H311        H  0.71069486  0.13849667  0.10818875     0.17000
O312        O  0.75281672  0.06512715  0.08096552    -0.59900
H313        H  0.65521570  0.03861196  0.01191124     0.17000
O314        O  0.61399289  0.11205738  0.03874963    -0.60000
H315        H  0.61737812  0.13866539  0.01990557     0.44000
H316        H  0.76588333  0.10087560  0.07753589     0.44000
C317        C  0.78472567  0.86890895  0.07612839    -0.05100
C318        C  0.75656067  0.89746886  0.09232202    -0.32500
C319        C  0.73792224  0.94119414  0.07652210     0.36700
C320        C  0.74801429  0.95906991  0.04365763    -0.05500
C321        C  0.77504267  0.92757906  0.02706732    -0.32400
C322        C  0.79368850  0.88430205  0.04298789     0.36600
H323        H  0.74827876  0.88526029  0.11740116     0.17000
O324        O  0.70802604  0.96225320  0.09246451    -0.59900
H325        H  0.78213662  0.93696634  0.00129130     0.17000
O326        O  0.81958731  0.85583624  0.02517520    -0.60000
H327        H  0.84163531  0.87895451  0.02730910     0.44000
H328        H  0.71680489  0.97975963  0.11365684     0.44000
C329        C  0.74967471  0.04310558  0.50096284    -0.05100
C330        C  0.73135397  0.07588553  0.47683714    -0.32500
C331        C  0.74838040  0.11842488  0.45883017     0.36700
C332        C  0.78488532  0.13061838  0.46466446    -0.05500
C333        C  0.80295740  0.10040206  0.98975420    -0.32400
C334        C  0.78588146  0.05777285  0.00815404     0.36600
H335        H  0.70312322  0.06848081  0.47187819     0.17000
O336        O  0.72844370  0.14931506  0.43656800    -0.59900
H337        H  0.83095239  0.10950362  0.99500156     0.17000
O338        O  0.80537249  0.03131294  0.03276247    -0.60000
H339        H  0.81520358  0.06103421  0.04770622     0.44000
H340        H  0.72739303  0.12631680  0.41569030     0.44000
C341        C  0.69656692  0.45867729  0.04169506    -0.05100
C342        C  0.69962594  0.45371414  0.07706195    -0.32500
C343        C  0.68079955  0.41256776  0.09491474     0.36700
C344        C  0.65873303  0.37377863  0.07778563    -0.05500
C345        C  0.65519073  0.37826943  0.04282784    -0.32400
C346        C  0.67377334  0.41952210  0.02482996     0.36600
H347        H  0.71786724  0.47983254  0.09129834     0.17000
O348        O  0.68477120  0.41019401  0.12923148    -0.59900
H349        H  0.63868471  0.34854052  0.02907288     0.17000
O350        O  0.67072068  0.41980418  0.99035220    -0.60000
H351        H  0.64605455  0.42853781  0.48508574     0.44000
H352        H  0.66506277  0.43370383  0.13849379     0.44000
C353        C  0.66468127  0.62896006  0.46242204    -0.05100
C354        C  0.64519516  0.59522396  0.48470625    -0.32500
C355        C  0.66156490  0.55149154  0.50251424     0.36700
C356        C  0.69890772  0.53982002  0.49804525    -0.05500
C357        C  0.71805654  0.57446826  0.47538169    -0.32400
C358        C  0.70145420  0.61778031  0.45762647     0.36600
H359        H  0.61691816  0.60352359  0.48910638     0.17000
O360        O  0.64143011  0.52539697  0.52678968    -0.59900
H361        H  0.74672345  0.56864007  0.47198478     0.17000
O362        O  0.72190545  0.64999133  0.43647569    -0.60000
H363        H  0.73045157  0.68176392  0.45056375     0.44000
H364        H  0.62101043  0.50743184  0.51482190     0.44000
C365        C  0.78495085  0.62618449  0.07546567    -0.05100
C366        C  0.74816333  0.61947124  0.08207919    -0.32500
C367        C  0.72772936  0.57859006  0.06548849     0.36700
C368        C  0.74406167  0.54048416  0.04251248    -0.05500
C369        C  0.78126080  0.54836429  0.03577127    -0.32400
C370        C  0.80147975  0.58997858  0.05209160     0.36600
H371        H  0.73461714  0.64726033  0.09965943     0.17000
O372        O  0.69149665  0.57645616  0.07189850    -0.59900
H373        H  0.79506007  0.52397292  0.01674945     0.17000
O374        O  0.83733375  0.59511418  0.04455637    -0.60000
H375        H  0.84993861  0.57140155  0.06125051     0.44000
H376        H  0.68135116  0.61129964  0.06224548     0.44000
C377        C  0.74537753  0.45807222  0.49941266    -0.05100
C378        C  0.74120505  0.45099366  0.46422479    -0.32500
C379        C  0.76007319  0.40967047  0.44645188     0.36700
C380        C  0.78368404  0.37346651  0.46345155    -0.05500
C381        C  0.78885504  0.38072810  0.49809924    -0.32400
C382        C  0.76961946  0.42139175  0.51612007     0.36600
H383        H  0.72193115  0.47524266  0.45014471     0.17000
O384        O  0.75473492  0.40467608  0.41237039    -0.59900
H385        H  0.80703093  0.35345281  0.51165284     0.17000
O386        O  0.77330992  0.42510667  0.05102570    -0.60000
H387        H  0.76378309  0.39088147  0.55981758     0.44000
H388        H  0.77333742  0.42882964  0.40197549     0.44000
C389        C  0.19811616  0.95831024  0.04194021    -0.05100
C390        C  0.21707624  0.92139514  0.06331403    -0.32500
C391        C  0.19989479  0.87892556  0.08117954     0.36700
C392        C  0.16271678  0.87035314  0.07743109    -0.05500
C393        C  0.14345559  0.90536950  0.05572588    -0.32400
C394        C  0.16054454  0.94824026  0.03764661     0.36600
H395        H  0.24590172  0.92580107  0.06627864     0.17000
O396        O  0.22019488  0.84439185  0.10108759    -0.59900
H397        H  0.11483045  0.89906866  0.05226493     0.17000
O398        O  0.14018508  0.97800046  0.01513931    -0.60000
H399        H  0.13103839  0.95049276  0.99839014     0.44000
H400        H  0.22354774  0.86532393  0.12252363     0.44000
C401        C  0.20007447  0.53822933  0.04173603    -0.05100
C402        C  0.20697252  0.54872486  0.07628383    -0.32500
C403        C  0.18906776  0.59113472  0.09414554     0.36700
C404        C  0.16389196  0.62563697  0.07780420    -0.05500
C405        C  0.15643418  0.61552456  0.04374468    -0.32400
C406        C  0.17413812  0.57299313  0.02577299     0.36600
H407        H  0.22762483  0.52620944  0.08969986     0.17000
O408        O  0.19626649  0.59798130  0.12781605    -0.59900
H409        H  0.13731743  0.64168741  0.03053600     0.17000
O410        O  0.16586477  0.56712688  0.49224169    -0.60000
H411        H  0.14045961  0.55468430  0.49077046     0.44000
H412        H  0.21874119  0.62029218  0.12878172     0.44000
C413        C  0.01713512  0.56650216  0.22558434    -0.05100
C414        C  0.01184411  0.56458538  0.19061336    -0.32500
C415        C  0.03206995  0.59862690  0.16926791     0.36700
C416        C  0.05875470  0.63409326  0.18278861    -0.05500
C417        C  0.06500224  0.63418940  0.21767863    -0.32400
C418        C  0.04418996  0.60134201  0.23905134     0.36600
H419        H  0.99164145  0.53711574  0.17986588     0.17000
O420        O  0.02526186  0.59724717  0.13533091    -0.59900
H421        H  0.08519276  0.66144786  0.22866910     0.17000
O422        O  0.04999832  0.60451777  0.27315797    -0.60000
H423        H  0.03244626  0.63256681  0.28161751     0.44000
H424        H  0.04158620  0.56807248  0.12611481     0.44000
C425        C  0.88979034  0.36411632  0.35769954    -0.05100
C426        C  0.91347280  0.40328143  0.37207593    -0.32500
C427        C  0.93444615  0.43795651  0.35158243     0.36700
C428        C  0.93219395  0.43279350  0.31631467    -0.05500
C429        C  0.90828015  0.39415245  0.30199514    -0.32400
C430        C  0.88716836  0.35993154  0.32232444     0.36600
H431        H  0.91549438  0.40736877  0.39921052     0.17000
O432        O  0.95598161  0.47816567  0.36600993    -0.59900
H433        H  0.90639917  0.38990663  0.27484537     0.17000
O434        O  0.86444108  0.32194555  0.30733414    -0.60000
H435        H  0.88011843  0.29121561  0.29901656     0.44000
H436        H  0.97408928  0.45749156  0.37942811     0.44000
C437        C  0.89555053  0.63832603  0.18013796    -0.05100
C438        C  0.88906065  0.58060576  0.18102529    -0.32500
C439        C  0.90933499  0.54606908  0.20220623     0.36700
C440        C  0.93593328  0.56948286  0.22341587    -0.05500
C441        C  0.94223531  0.62744062  0.22241972    -0.32400
C442        C  0.92250184  0.66167531  0.20071420     0.36600
H443        H  0.86833993  0.56234214  0.16523024     0.17000
O444        O  0.90291744  0.48947794  0.20210172    -0.59900
H445        H  0.96227276  0.64625999  0.23873964     0.17000
O446        O  0.92943264  0.71810242  0.20000562    -0.60000
H447        H  0.91411667  0.73452977  0.21797928     0.44000
H448        H  0.91964545  0.47375419  0.18502070     0.44000
C449        C  0.05427193  0.85745348  0.18323212    -0.05100
C450        C  0.04838664  0.84298467  0.21700510    -0.32500
C451        C  0.02678285  0.87656400  0.23776527     0.36700
C452        C  0.01136361  0.92582641  0.22495123    -0.05500
C453        C  0.01801398  0.94095667  0.19142712    -0.32400
C454        C  0.03823963  0.90605974  0.17022441     0.36600
H455        H  0.06011218  0.80506606  0.22713432     0.17000
O456        O  0.02069195  0.86089002  0.27046935    -0.59900
H457        H  0.00779350  0.98014332  0.18174757     0.17000
O458        O  0.04345446  0.92095830  0.13726948    -0.60000
H459        H  0.02231012  0.90582336  0.12500918     0.44000
H460        H  0.04165233  0.87521982  0.28333225     0.44000
C461        C  0.89097167  0.86113172  0.18138503    -0.05100
C462        C  0.88903126  0.85478854  0.21650038    -0.32500
C463        C  0.90930550  0.88888658  0.23782671     0.36700
C464        C  0.93118531  0.93100339  0.22416231    -0.05500
C465        C  0.93168868  0.93938772  0.18923826    -0.32400
C466        C  0.91236128  0.90395901  0.16774771     0.36600
H467        H  0.87253502  0.82217888  0.22743834     0.17000
O468        O  0.90753461  0.88084109  0.27199679    -0.59900
H469        H  0.94682159  0.97366612  0.17860868     0.17000
O470        O  0.91424829  0.91189595  0.13360137    -0.60000
H471        H  0.89506086  0.93941870  0.12847060     0.44000
H472        H  0.92949707  0.85932873  0.27773506     0.44000
C473        C  0.93333709  0.07178369  0.31583124    -0.05100
C474        C  0.93859241  0.12999058  0.31479575    -0.32500
C475        C  0.91893739  0.16553384  0.33603292     0.36700
C476        C  0.89321033  0.14294984  0.35812835    -0.05500
C477        C  0.88788914  0.08503799  0.35926869    -0.32400
C478        C  0.90786636  0.04936232  0.33834085     0.36600
H479        H  0.95778551  0.14783684  0.29733775     0.17000
O480        O  0.92433348  0.22231227  0.33439172    -0.59900
H481        H  0.86826933  0.06751173  0.37643518     0.17000
O482        O  0.90319795  0.99252515  0.34074976    -0.60000
H483        H  0.88095406  0.98423284  0.32788453     0.44000
H484        H  0.94114898  0.23115842  0.35305265     0.44000
C485        C  0.16261306  0.36908833  0.46455173    -0.05100
C486        C  0.19926976  0.37774901  0.45832307    -0.32500
C487        C  0.21872826  0.41854997  0.47601781     0.36700
C488        C  0.20127680  0.45507095  0.49927908    -0.05500
C489        C  0.16458670  0.44435269  0.50621069    -0.32400
C490        C  0.14539353  0.40262286  0.48902064     0.36600
H491        H  0.21337905  0.35180529  0.44012463     0.17000
O492        O  0.25555350  0.42271128  0.96967418    -0.59900
H493        H  0.15046953  0.46697175  0.52582344     0.17000
O494        O  0.10982983  0.39465938  0.49683181    -0.60000
H495        H  0.09641775  0.42016221  0.48171731     0.44000
H496        H  0.26653877  0.38795074  0.97861494     0.44000
C497        C  0.16264553  0.12767264  0.46257782    -0.05100
C498        C  0.15708499  0.12205465  0.49724738    -0.32500
C499        C  0.17464461  0.08047439  0.51561184     0.36700
C500        C  0.19855278  0.04229786  0.49943316    -0.05500
C501        C  0.20454666  0.04957368  0.46450720    -0.32400
C502        C  0.18636214  0.09061396  0.44614966     0.36600
H503        H  0.13934387  0.15069689  0.51051293     0.17000
O504        O  0.16968391  0.07911445  0.05034849    -0.59900
H505        H  0.22412784  0.02478365  0.45095436     0.17000
O506        O  0.19149257  0.09323815  0.41195777    -0.60000
H507        H  0.21420935  0.11437678  0.40893310     0.44000
H508        H  0.14410295  0.06871466  0.05361750     0.44000
C509        C  0.05313123  0.35860403  0.35968708    -0.05100
C510        C  0.06022148  0.41608111  0.35901469    -0.32500
C511        C  0.03996369  0.45122575  0.33833307     0.36700
C512        C  0.01280759  0.42855452  0.31748826    -0.05500
C513        C  0.00588924  0.37075891  0.31832139    -0.32400
C514        C  0.02548077  0.33596971  0.33969500     0.36600
H515        H  0.08136975  0.43365163  0.37459656     0.17000
O516        O  0.04686108  0.50767868  0.33861270    -0.59900
H517        H  0.98554577  0.35250778  0.30211242     0.17000
O518        O  0.01841141  0.27954554  0.33993141    -0.60000
H519        H  0.00254558  0.27371650  0.35969029     0.44000
H520        H  0.03010216  0.52367798  0.35557305     0.44000
C521        C  0.01357404  0.06758854  0.31560354    -0.05100
C522        C  0.01035326  0.06291865  0.35067945    -0.32500
C523        C  0.03095391  0.09697451  0.37201800     0.36700
C524        C  0.05534678  0.13578063  0.35816392    -0.05500
C525        C  0.05866544  0.13972334  0.32303943    -0.32400
C526        C  0.03773487  0.10648216  0.30184185     0.36600
H527        H  0.99182873  0.03290144  0.36145263     0.17000
O528        O  0.02708730  0.09192777  0.40622981    -0.59900
H529        H  0.07676375  0.16998254  0.31188325     0.17000
O530        O  0.04053016  0.11303644  0.26761757    -0.60000
H531        H  0.02089112  0.13920317  0.26152081     0.44000
H532        H  0.04467272  0.06278502  0.41290606     0.44000
O533        O  0.10626891  0.30610666  0.86974142    -0.74100
O534        O  0.15670754  0.19120126  0.91701410    -0.74100
O535        O  0.10597199  0.19377634  0.86834664    -0.74200
O536        O  0.15724561  0.30487409  0.91849690    -0.74200
O537        O  0.11348363  0.30618268  0.95684762    -0.74100
O538        O  0.06384130  0.19068322  0.90832226    -0.74100
O539        O  0.11462269  0.19256968  0.95702016    -0.74100
O540        O  0.06234956  0.30301553  0.90814313    -0.74200
Ni541      Ni  0.13319294  0.24903998  0.89208068     1.25400
Ni542      Ni  0.08714783  0.24815309  0.93409207     1.25400
C543        C  0.07539488  0.32161378  0.88058934     0.88100
C544        C  0.14382325  0.17263228  0.94472689     0.88000
C545        C  0.07620790  0.17464319  0.87973267     0.88100
C546        C  0.14358903  0.32462288  0.94573496     0.88200
C547        C  0.95316350  0.03573492  0.79294764     0.02600
C548        C  0.99110887  0.03288677  0.79326239     0.02600
C549        C  0.00896964  0.99704908  0.77069812    -0.17900
C550        C  0.98988933  0.96467541  0.74735169     0.02600
C551        C  0.95198498  0.96803161  0.74671163     0.02600
C552        C  0.93405874  0.00328314  0.76953990    -0.17900
H553        H  0.90493545  0.00561269  0.76893706     0.04600
H554        H  0.03809131  0.99442731  0.77126817     0.04600
C555        C  0.95476118  0.46766139  0.79426851     0.02600
C556        C  0.99274195  0.46560306  0.79478218     0.02600
C557        C  0.01214340  0.49783018  0.77177085    -0.17900
C558        C  0.99476898  0.53273672  0.74866844     0.02600
C559        C  0.95668108  0.53406452  0.74770587     0.02600
C560        C  0.93728053  0.50157169  0.77068424    -0.17900
H561        H  0.90812873  0.50322361  0.77053953     0.04600
H562        H  0.04126029  0.49506740  0.77148808     0.04600
O563        O  0.15649624  0.80731653  0.62273370    -0.74100
O564        O  0.10860092  0.69316547  0.67210109    -0.74100
O565        O  0.15824786  0.69350655  0.62263103    -0.74200
O566        O  0.10599815  0.80490662  0.67236699    -0.74200
O567        O  0.06294968  0.80407460  0.63320121    -0.74100
O568        O  0.11474597  0.69132255  0.58409854    -0.74100
O569        O  0.06482052  0.69125549  0.63375656    -0.74100
O570        O  0.11343943  0.80558776  0.58374686    -0.74200
Ni571      Ni  0.13399282  0.74996612  0.64866495     1.25400
Ni572      Ni  0.08751801  0.74803947  0.60718399     1.25400
C573        C  0.14305835  0.82556127  0.59522466     0.88100
C574        C  0.07841327  0.67437692  0.66158606     0.88000
C575        C  0.14457592  0.67267100  0.59570191     0.88100
C576        C  0.07531569  0.82125512  0.66152532     0.88200
C577        C  0.72134140  0.49894228  0.52039392    -0.02100
C578        C  0.72653387  0.00145592  0.52205327    -0.02100
O579        O  0.55932418  0.30284553  0.63136802    -0.74100
O580        O  0.61327153  0.19222995  0.58279913    -0.74100
O581        O  0.56158548  0.19023008  0.63113615    -0.74200
O582        O  0.61140042  0.30634692  0.58305623    -0.74200
O583        O  0.65347889  0.30868388  0.62296856    -0.74100
O584        O  0.60411720  0.19313619  0.67068075    -0.74100
O585        O  0.65574212  0.19467617  0.62226345    -0.74100
O586        O  0.60193455  0.30523620  0.67101002    -0.74200
Ni587      Ni  0.58499643  0.24788468  0.60552674     1.25400
Ni588      Ni  0.63043114  0.25044941  0.64799923     1.25400
C589        C  0.57137112  0.32077641  0.65962344     0.88100
C590        C  0.64312927  0.17438049  0.59471317     0.88000
C591        C  0.57408085  0.17432996  0.65962017     0.88100
C592        C  0.64039939  0.32730057  0.59538105     0.88200
O593        O  0.65963562  0.69771025  0.91874530    -0.74100
O594        O  0.60719335  0.80908912  0.86995169    -0.74100
O595        O  0.65782358  0.81172659  0.91907739    -0.74200
O596        O  0.60916356  0.69637926  0.86987541    -0.74200
O597        O  0.56596685  0.69405436  0.90882094    -0.74100
O598        O  0.61478733  0.81028371  0.95805511    -0.74100
O599        O  0.56366123  0.80691137  0.90870340    -0.74100
O600        O  0.61636291  0.69592837  0.95755622    -0.74200
Ni601      Ni  0.63506497  0.75389031  0.89314750     1.25400
Ni602      Ni  0.58876264  0.75194153  0.93481572     1.25400
C603        C  0.64614075  0.67720477  0.94570328     0.88100
C604        C  0.57628352  0.82464764  0.88070146     0.88000
C605        C  0.64434450  0.83048260  0.94664254     0.88100
C606        C  0.57940300  0.67663837  0.88093243     0.88200
O607        O  0.33361044  0.69470156  0.96093687    -0.74100
O608        O  0.38335851  0.80848627  0.91098208    -0.74100
O609        O  0.33203356  0.80882012  0.95937526    -0.74200
O610        O  0.38573362  0.69596118  0.91263900    -0.74200
O611        O  0.34315207  0.69189108  0.87302977    -0.74100
O612        O  0.28934018  0.80484714  0.92010220    -0.74100
O613        O  0.34058467  0.80399366  0.87171248    -0.74100
O614        O  0.29159026  0.69094614  0.92101119    -0.74200
Ni615      Ni  0.36007108  0.75205820  0.93756434     1.25400
Ni616      Ni  0.31454804  0.74780032  0.89519991     1.25400
C617        C  0.30462521  0.67339339  0.94884401     0.88100
C618        C  0.37054430  0.82346982  0.88243791     0.88000
C619        C  0.30233493  0.82655954  0.94711820     0.88100
C620        C  0.37376426  0.67685462  0.88463585     0.88200
C621        C  0.22095604  0.00020567  0.52061877    -0.02100
O622        O  0.38088582  0.19388493  0.63569495    -0.74100
O623        O  0.33046209  0.30759587  0.58705303    -0.74100
O624        O  0.38023863  0.30690792  0.63673227    -0.74200
O625        O  0.33101601  0.19340070  0.58566049    -0.74200
O626        O  0.28730228  0.19214604  0.62403122    -0.74100
O627        O  0.33673413  0.30456902  0.67540949    -0.74100
O628        O  0.28686458  0.30631064  0.62554592    -0.74100
O629        O  0.33687040  0.19214438  0.67400592    -0.74200
Ni630      Ni  0.35711748  0.25044986  0.60981524     1.25400
Ni631      Ni  0.31026884  0.24878584  0.65098601     1.25400
C632        C  0.36750072  0.17549148  0.66322017     0.88100
C633        C  0.30054310  0.32638145  0.59854457     0.88000
C634        C  0.36705612  0.32317231  0.66497539     0.88100
C635        C  0.30125733  0.17337767  0.59663060     0.88200
C636        C  0.22342541  0.49790751  0.52056752    -0.02100
C637        C  0.49027406  0.02834021  0.74484594     0.02600
C638        C  0.45228930  0.02788509  0.74520367     0.02600
C639        C  0.43424509  0.99330517  0.76796369    -0.17900
C640        C  0.45311064  0.96002002  0.79102090     0.02600
C641        C  0.49123733  0.96089319  0.79108129     0.02600
C642        C  0.50921886  0.99476274  0.76767199    -0.17900
H643        H  0.53837443  0.99495481  0.76708433     0.04600
H644        H  0.40507745  0.99380029  0.76853517     0.04600
C645        C  0.45314643  0.46831428  0.74933554     0.02600
C646        C  0.49103832  0.46502198  0.74822511     0.02600
C647        C  0.51141175  0.49607967  0.77138507    -0.17900
C648        C  0.49503803  0.53134037  0.79526284     0.02600
C649        C  0.45699893  0.53490267  0.79633886     0.02600
C650        C  0.43663778  0.50288179  0.77347582    -0.17900
H651        H  0.40752031  0.50538281  0.77416537     0.04600
H652        H  0.54047683  0.49229824  0.77105314     0.04600
O653        O  0.83338314  0.19615973  0.95787278    -0.74100
O654        O  0.88224245  0.31109723  0.90837102    -0.74100
O655        O  0.83202968  0.31018021  0.95794778    -0.74200
O656        O  0.88410852  0.19872585  0.90817236    -0.74200
O657        O  0.84029919  0.19637224  0.86970430    -0.74100
O658        O  0.78894173  0.30869467  0.91894351    -0.74100
O659        O  0.83883371  0.30827975  0.86965091    -0.74100
O660        O  0.78992419  0.19517488  0.91931235    -0.74200
Ni661      Ni  0.85940781  0.25402049  0.93463684     1.25400
Ni662      Ni  0.81286454  0.25199637  0.89318334     1.25400
C663        C  0.80349020  0.17659433  0.94670049     0.88100
C664        C  0.86908898  0.32691902  0.88014071     0.88000
C665        C  0.80230893  0.32884318  0.94614430     0.88100
C666        C  0.87125827  0.18093617  0.88018313     0.88200
O667        O  0.88661512  0.69319342  0.63155908    -0.74100
O668        O  0.83417830  0.80373018  0.58201658    -0.74100
O669        O  0.88416459  0.80592090  0.63166126    -0.74200
O670        O  0.83570521  0.68935196  0.58205450    -0.74200
O671        O  0.79201293  0.69016669  0.62046732    -0.74100
O672        O  0.84119015  0.80218111  0.67085590    -0.74100
O673        O  0.79142531  0.80373124  0.62130247    -0.74100
O674        O  0.84248316  0.69000457  0.66968768    -0.74200
Ni675      Ni  0.86165977  0.74800610  0.60528428     1.25400
Ni676      Ni  0.81517368  0.74641212  0.64680480     1.25400
C677        C  0.87358259  0.67472536  0.65920095     0.88100
C678        C  0.80453507  0.82302362  0.59380427     0.88000
C679        C  0.87093903  0.82183741  0.65999659     0.88100
C680        C  0.80565073  0.67053455  0.59326509     0.88200
C681        C  0.28180319  0.37211143  0.58040394    -0.05100
C682        C  0.30095547  0.40534045  0.55758143    -0.32500
C683        C  0.28408833  0.44783851  0.53908652     0.36700
C684        C  0.24658064  0.45849751  0.54326601    -0.05500
C685        C  0.22784519  0.42445791  0.56652991    -0.32400
C686        C  0.24488212  0.38237445  0.58489962     0.36600
H687        H  0.32934045  0.39768016  0.55338459     0.17000
O688        O  0.30411741  0.47401174  0.51479879    -0.59900
H689        H  0.19914124  0.42978120  0.56993975     0.17000
O690        O  0.22469349  0.35035117  0.60637321    -0.60000
H691        H  0.21588998  0.31854503  0.59245161     0.44000
H692        H  0.32289403  0.49543668  0.52709909     0.44000
C693        C  0.38770655  0.36238948  0.68640597    -0.05100
C694        C  0.40933621  0.40382919  0.67167312    -0.32500
C695        C  0.43042390  0.43952505  0.69177776     0.36700
C696        C  0.43006991  0.43367282  0.72706699    -0.05500
C697        C  0.40820703  0.39271812  0.74172305    -0.32400
C698        C  0.38722942  0.35715743  0.72175256     0.36600
H699        H  0.40986085  0.40859243  0.64454529     0.17000
O700        O  0.45054635  0.48082054  0.67695125    -0.59900
H701        H  0.40817105  0.38732836  0.76881742     0.17000
O702        O  0.36815540  0.31508153  0.73692893    -0.60000
H703        H  0.34563707  0.33297635  0.74498122     0.44000
H704        H  0.46903188  0.46101741  0.66333687     0.44000
C705        C  0.38862933  0.13703605  0.68385255    -0.05100
C706        C  0.41128497  0.15941396  0.70867626    -0.32500
C707        C  0.43197311  0.12415331  0.72888073     0.36700
C708        C  0.43064517  0.06575735  0.72388860    -0.05500
C709        C  0.40718578  0.04331668  0.69956204    -0.32400
C710        C  0.38636695  0.07873163  0.67938838     0.36600
H711        H  0.41271051  0.20437052  0.71253257     0.17000
O712        O  0.45298994  0.14702898  0.75378429    -0.59900
H713        H  0.40535833  0.99835278  0.69604218     0.17000
O714        O  0.36354515  0.05611970  0.65582511    -0.60000
H715        H  0.37736915  0.05595650  0.63444838     0.44000
H716        H  0.43768290  0.14707842  0.77425581     0.44000
C717        C  0.28280327  0.12736628  0.57791143    -0.05100
C718        C  0.25787495  0.09358860  0.59478341    -0.32500
C719        C  0.23909533  0.05048012  0.57821316     0.36700
C720        C  0.24460365  0.04013613  0.54310393    -0.05500
C721        C  0.26969265  0.07516445  0.52648832    -0.32400
C722        C  0.28913838  0.11692466  0.54349957     0.36600
H723        H  0.25232538  0.10104774  0.62123986     0.17000
O724        O  0.21294100  0.02337362  0.59622104    -0.59900
H725        H  0.27394149  0.07044061  0.49961444     0.17000
O726        O  0.31290728  0.14915822  0.52565553    -0.60000
H727        H  0.33561824  0.12735087  0.52523459     0.44000
H728        H  0.22584233  0.00192559  0.61382291     0.44000
C729        C  0.24711959  0.53959406  0.99929702    -0.09500
C730        C  0.26944359  0.57633603  0.51734972    -0.32500
C731        C  0.28900154  0.61862429  0.50143214     0.36700
C732        C  0.28578538  0.62737944  0.96661161    -0.05500
C733        C  0.26226161  0.59257998  0.94847606    -0.32400
C734        C  0.24262538  0.54992501  0.96420821     0.36600
H735        H  0.27279818  0.57146629  0.54427813     0.17000
O736        O  0.31125714  0.65198232  0.52041679    -0.59900
H737        H  0.25840458  0.59899184  0.92171394     0.17000
O738        O  0.21844317  0.52052314  0.94489546    -0.60000
H739        H  0.20056452  0.54816869  0.93677494     0.44000
H740        H  0.33396090  0.63046226  0.52253871     0.44000
C741        C  0.28293490  0.87295192  0.96429975    -0.05100
C742        C  0.24626475  0.88086429  0.95819446    -0.32500
C743        C  0.22687607  0.92301399  0.97484843     0.36700
C744        C  0.24400752  0.95957020  0.99841700    -0.05500
C745        C  0.28131920  0.95144672  0.50413351    -0.32400
C746        C  0.30088332  0.90974745  0.48719670     0.36600
H747        H  0.23209359  0.85323150  0.94098622     0.17000
O748        O  0.19056996  0.92631880  0.96912051    -0.59900
H749        H  0.29556759  0.97520457  0.52310159     0.17000
O750        O  0.33692646  0.90450448  0.49379729    -0.60000
H751        H  0.34905050  0.92847921  0.47691760     0.44000
H752        H  0.18783400  0.93693683  0.94512730     0.44000
C753        C  0.39118118  0.86086196  0.86013631    -0.05100
C754        C  0.38617374  0.85557448  0.82519366    -0.32500
C755        C  0.40647591  0.88710522  0.80271878     0.36700
C756        C  0.43192495  0.92578224  0.81492289    -0.05500
C757        C  0.43668266  0.93196725  0.84987724    -0.32400
C758        C  0.41670319  0.89950549  0.87248428     0.36600
H759        H  0.36710755  0.82555729  0.81507521     0.17000
O760        O  0.40165071  0.87913541  0.76875914    -0.59900
H761        H  0.45594624  0.96201145  0.85960755     0.17000
O762        O  0.42222327  0.90612321  0.90643291    -0.60000
H763        H  0.40375344  0.93349822  0.91391853     0.44000
H764        H  0.41934311  0.84989621  0.76224968     0.44000
C765        C  0.39646087  0.63962567  0.86431407    -0.05100
C766        C  0.42379368  0.66312805  0.84464190    -0.32500
C767        C  0.44370603  0.62978781  0.82233588     0.36700
C768        C  0.43739420  0.57152893  0.82060073    -0.05500
C769        C  0.41036583  0.54810376  0.84094721    -0.32400
C770        C  0.38959865  0.58192661  0.86233186     0.36600
H771        H  0.42871443  0.70788708  0.84560860     0.17000
O772        O  0.46835477  0.65488229  0.80162781    -0.59900
H773        H  0.40497075  0.50352119  0.83978422     0.17000
O774        O  0.36277679  0.55829902  0.88124929    -0.60000
H775        H  0.34080079  0.56112848  0.86721208     0.44000
H776        H  0.45510329  0.66320974  0.78057400     0.44000
C777        C  0.55385950  0.86016956  0.85916239    -0.05100
C778        C  0.56091436  0.91755264  0.85630913    -0.32500
C779        C  0.54031092  0.95085073  0.83465962     0.36700
C780        C  0.51298066  0.92637605  0.81470074    -0.05500
C781        C  0.50656119  0.86854379  0.81730373    -0.32400
C782        C  0.52635411  0.83574819  0.83973876     0.36600
H783        H  0.58218086  0.93659362  0.87110171     0.17000
O784        O  0.54695494  0.00731913  0.83332387    -0.59900
H785        H  0.48613236  0.84869831  0.80188534     0.17000
O786        O  0.51873622  0.77970216  0.84247561    -0.60000
H787        H  0.53412244  0.76090329  0.82540306     0.44000
H788        H  0.52997269  0.02446322  0.84967860     0.44000
C789        C  0.55974353  0.63520115  0.86017578    -0.05100
C790        C  0.56514395  0.63512192  0.82518531    -0.32500
C791        C  0.54468963  0.60077234  0.80411435     0.36700
C792        C  0.51854560  0.56484880  0.81787588    -0.05500
C793        C  0.51423182  0.56277274  0.85300798    -0.32400
C794        C  0.53451853  0.59776912  0.87415803     0.36600
H795        H  0.58429103  0.66357953  0.81385275     0.17000
O796        O  0.54945018  0.60431227  0.76990996    -0.59900
H797        H  0.49468199  0.53460190  0.86398589     0.17000
O798        O  0.52927078  0.59526144  0.90832156    -0.60000
H799        H  0.54801661  0.56923492  0.91666043     0.44000
H800        H  0.53219376  0.63332558  0.76235670     0.44000
C801        C  0.51026676  0.42834559  0.72397853    -0.05100
C802        C  0.50421654  0.37029354  0.72409117    -0.32500
C803        C  0.52327983  0.33508230  0.70220056     0.36700
C804        C  0.54909162  0.35781637  0.68030803    -0.05500
C805        C  0.55498605  0.41564611  0.67983418    -0.32400
C806        C  0.53573138  0.45099841  0.70154137     0.36600
H807        H  0.48516917  0.35219623  0.74158868     0.17000
O808        O  0.51768360  0.27830190  0.70334795    -0.59900
H809        H  0.57481207  0.43327182  0.66291078     0.17000
O810        O  0.54125216  0.50777375  0.70017803    -0.60000
H811        H  0.56434129  0.51436592  0.71204900     0.44000
H812        H  0.49769112  0.27098698  0.68739457     0.44000
C813        C  0.55290294  0.13602825  0.68103812    -0.05100
C814        C  0.53116290  0.09420111  0.66655471    -0.32500
C815        C  0.51039425  0.05875543  0.68695635     0.36700
C816        C  0.51108725  0.06536357  0.72222540    -0.05500
C817        C  0.53261441  0.10726156  0.73659207    -0.32400
C818        C  0.55331363  0.14246112  0.71638957     0.36600
H819        H  0.53061716  0.08853542  0.63945680     0.17000
O820        O  0.49080239  0.01627439  0.67246889    -0.59900
H821        H  0.53304039  0.11307502  0.76369521     0.17000
O822        O  0.57246031  0.18492072  0.73139752    -0.60000
H823        H  0.59493468  0.16717798  0.73952270     0.44000
H824        H  0.47162516  0.03499869  0.65933013     0.44000
C825        C  0.70271349  0.96200848  0.99999422    -0.05100
C826        C  0.67374581  0.93319116  0.01527950    -0.32500
C827        C  0.65385818  0.89217326  0.99817368     0.36700
C828        C  0.66348639  0.87606982  0.96521019    -0.05500
C829        C  0.69286796  0.90292787  0.95001111    -0.32400
C830        C  0.71250696  0.94480583  0.96682540     0.36600
H831        H  0.66734969  0.94128829  0.54091794     0.17000
O832        O  0.62605012  0.86645510  0.01470425    -0.59900
H833        H  0.70142228  0.89063084  0.92493752     0.17000
O834        O  0.74294794  0.96467377  0.95143151    -0.60000
H835        H  0.73446939  0.98577094  0.93149131     0.44000
H836        H  0.60492595  0.89110283  0.01115422     0.44000
C837        C  0.66328236  0.12945927  0.57668124    -0.05100
C838        C  0.69849910  0.11660873  0.58654291    -0.32500
C839        C  0.71863611  0.07536256  0.56974531     0.36700
C840        C  0.70311511  0.04271026  0.54346956    -0.05500
C841        C  0.66773350  0.05688197  0.53345681    -0.32400
C842        C  0.64807421  0.09920412  0.54963334     0.36600
H843        H  0.71108155  0.13959455  0.60698931     0.17000
O844        O  0.75342957  0.06639977  0.57980512    -0.59900
H845        H  0.65528490  0.03709276  0.51186742     0.17000
O846        O  0.61385795  0.11032468  0.53863346    -0.60000
H847        H  0.61688576  0.13658208  0.51955924     0.44000
H848        H  0.76625423  0.10216547  0.57571941     0.44000
C849        C  0.78536902  0.86880942  0.57587050    -0.05100
C850        C  0.75753318  0.89793670  0.59221076    -0.32500
C851        C  0.73887676  0.94163012  0.57638248     0.36700
C852        C  0.74857407  0.95883188  0.54329269    -0.05500
C853        C  0.77535302  0.92689946  0.52661733    -0.32400
C854        C  0.79406230  0.88372462  0.54259072     0.36600
H855        H  0.74951254  0.88618580  0.61744401     0.17000
O856        O  0.70926493  0.96319916  0.59253553    -0.59900
H857        H  0.78219380  0.93586871  0.50072424     0.17000
O858        O  0.81973911  0.85488325  0.52471190    -0.60000
H859        H  0.84186268  0.87788701  0.52658801     0.44000
H860        H  0.71839807  0.98107758  0.61348311     0.44000
C861        C  0.74926843  0.04364390  0.00147205    -0.05100
C862        C  0.73105261  0.07631760  0.97722274    -0.32500
C863        C  0.74808864  0.11902457  0.95934063     0.36700
C864        C  0.78450357  0.13156146  0.96543212    -0.05500
C865        C  0.80346257  0.09928359  0.48880940    -0.32400
C866        C  0.78640008  0.05686071  0.50734982     0.36600
H867        H  0.70289189  0.06869694  0.97204934     0.17000
O868        O  0.72823614  0.14969984  0.93690757    -0.59900
H869        H  0.83153512  0.10814097  0.49384092     0.17000
O870        O  0.80599782  0.03036424  0.53186565    -0.60000
H871        H  0.81574787  0.06006514  0.54687040     0.44000
H872        H  0.72746320  0.12666652  0.91603286     0.44000
C873        C  0.69750597  0.45784680  0.54128739    -0.05100
C874        C  0.70062926  0.45269793  0.57665028    -0.32500
C875        C  0.68158397  0.41172315  0.59451968     0.36700
C876        C  0.65927474  0.37322682  0.57739555    -0.05500
C877        C  0.65582475  0.37779275  0.54242987    -0.32400
C878        C  0.67458861  0.41885718  0.52443891     0.36600
H879        H  0.71898995  0.47865684  0.59086372     0.17000
O880        O  0.68551881  0.40929900  0.62883768    -0.59900
H881        H  0.63918453  0.34828749  0.52864523     0.17000
O882        O  0.67149055  0.41918042  0.48996989    -0.60000
H883        H  0.64519789  0.42852167  0.98543186     0.44000
H884        H  0.66624533  0.43369950  0.63807374     0.44000
C885        C  0.66447324  0.63031315  0.96309404    -0.05100
C886        C  0.64472163  0.59620948  0.98496379    -0.32500
C887        C  0.66088547  0.55221087  0.00267565     0.36700
C888        C  0.69826172  0.54058022  0.99845356    -0.05500
C889        C  0.71764203  0.57545396  0.97609060    -0.32400
C890        C  0.70127344  0.61916140  0.95853074     0.36600
H891        H  0.61639395  0.60442703  0.98912546     0.17000
O892        O  0.64050732  0.52583824  0.02666104    -0.59900
H893        H  0.74632748  0.56958461  0.97286323     0.17000
O894        O  0.72196564  0.65174607  0.93779588    -0.60000
H895        H  0.73033824  0.68327863  0.95216984     0.44000
H896        H  0.62018177  0.50807649  0.01444423     0.44000
C897        C  0.78566068  0.62579414  0.57505644    -0.05100
C898        C  0.74892302  0.61869014  0.58178570    -0.32500
C899        C  0.72853937  0.57778551  0.56515073     0.36700
C900        C  0.74487014  0.53997327  0.54200496    -0.05500
C901        C  0.78200001  0.54828233  0.53508986    -0.32400
C902        C  0.80217382  0.58995920  0.55145156     0.36600
H903        H  0.73535529  0.64618973  0.59951405     0.17000
O904        O  0.69234938  0.57533555  0.57171038    -0.59900
H905        H  0.79575920  0.52414999  0.51592065     0.17000
O906        O  0.83794996  0.59554399  0.54371397    -0.60000
H907        H  0.85076820  0.57165151  0.56017127     0.44000
H908        H  0.68205821  0.61021955  0.56224405     0.44000
C909        C  0.74453682  0.45862278  0.99996240    -0.05100
C910        C  0.74071340  0.45190150  0.96472284    -0.32500
C911        C  0.75977780  0.41076618  0.94698348     0.36700
C912        C  0.78316764  0.37434135  0.96408659    -0.05500
C913        C  0.78790785  0.38114864  0.99881160    -0.32400
C914        C  0.76851706  0.42166729  0.01678409     0.36600
H915        H  0.72163599  0.47637692  0.95055003     0.17000
O916        O  0.75488843  0.40621404  0.91282227    -0.59900
H917        H  0.80587715  0.35364976  0.01244202     0.17000
O918        O  0.77478786  0.42518634  0.55030030    -0.60000
H919        H  0.76223674  0.39067076  0.06030498     0.44000
H920        H  0.77367179  0.43041666  0.90275639     0.44000
C921        C  0.19776557  0.95823697  0.54131482    -0.05100
C922        C  0.21653082  0.92156073  0.56295382    -0.32500
C923        C  0.19918295  0.87927308  0.58082131     0.36700
C924        C  0.16204897  0.87051204  0.57671678    -0.05500
C925        C  0.14302568  0.90509803  0.55459546    -0.32400
C926        C  0.16027452  0.94787741  0.53657073     0.36600
H927        H  0.24531169  0.92612574  0.56621074     0.17000
O928        O  0.21928628  0.84519781  0.60118280    -0.59900
H929        H  0.11446389  0.89860626  0.55081998     0.17000
O930        O  0.14015816  0.97732427  0.51371734    -0.60000
H931        H  0.13110032  0.94957924  0.49706590     0.44000
H932        H  0.22230399  0.86651793  0.62252662     0.44000
C933        C  0.19914656  0.53831805  0.54189952    -0.05100
C934        C  0.20617878  0.54905817  0.57640193    -0.32500
C935        C  0.18839962  0.59170558  0.59419493     0.36700
C936        C  0.16317618  0.62610586  0.57783414    -0.05500
C937        C  0.15554088  0.61564917  0.54384687    -0.32400
C938        C  0.17312141  0.57292423  0.52594875     0.36600
H939        H  0.22686253  0.52657883  0.58980187     0.17000
O940        O  0.19577125  0.59889637  0.62780743    -0.59900
H941        H  0.13636950  0.64169445  0.53062348     0.17000
O942        O  0.16706262  0.56748022  0.99201188    -0.60000
H943        H  0.14161160  0.55532300  0.99036737     0.44000
H944        H  0.21826117  0.62118836  0.62858801     0.44000
C945        C  0.01736011  0.56689458  0.72600407    -0.05100
C946        C  0.01192654  0.56480688  0.69105185    -0.32500
C947        C  0.03188773  0.59899407  0.66957548     0.36700
C948        C  0.05848229  0.63477873  0.68292895    -0.05500
C949        C  0.06497562  0.63492369  0.71778842    -0.32400
C950        C  0.04441710  0.60191925  0.73930113     0.36600
H951        H  0.99177433  0.53712839  0.68041844     0.17000
O952        O  0.02489531  0.59744962  0.63567507    -0.59900
H953        H  0.08515115  0.66234712  0.72865414     0.17000
O954        O  0.05044881  0.60517695  0.77337139    -0.60000
H955        H  0.03289696  0.63315208  0.78191980     0.44000
H956        H  0.04141384  0.56860751  0.62638432     0.44000
C957        C  0.88978421  0.36500175  0.85844356    -0.05100
C958        C  0.91365345  0.40395564  0.87277383    -0.32500
C959        C  0.93470369  0.43850323  0.85224529     0.36700
C960        C  0.93238616  0.43339994  0.81697223    -0.05500
C961        C  0.90829170  0.39496329  0.80270286    -0.32400
C962        C  0.88708149  0.36091935  0.82306444     0.36600
H963        H  0.91575351  0.40800071  0.89990458     0.17000
O964        O  0.95636942  0.47855954  0.86665350    -0.59900
H965        H  0.90632812  0.39075007  0.77555701     0.17000
O966        O  0.86417432  0.32319715  0.80808276    -0.60000
H967        H  0.87963780  0.29182074  0.80031539     0.44000
H968        H  0.97452123  0.45774415  0.87993933     0.44000
C969        C  0.89569810  0.63825309  0.68045729    -0.05100
C970        C  0.88952195  0.58042945  0.68117366    -0.32500
C971        C  0.90983643  0.54602275  0.70241380     0.36700
C972        C  0.93618988  0.56964669  0.72380616    -0.05500
C973        C  0.94221666  0.62767546  0.72294363    -0.32400
C974        C  0.92239176  0.66180655  0.70124436     0.36600
H975        H  0.86901331  0.56199001  0.66520982     0.17000
O976        O  0.90369469  0.48935646  0.70219730    -0.59900
H977        H  0.96208693  0.64663252  0.73938693     0.17000
O978        O  0.92897945  0.71833956  0.70073755    -0.60000
H979        H  0.91408230  0.73422517  0.71918889     0.44000
H980        H  0.92057956  0.47389977  0.68516457     0.44000
C981        C  0.05316577  0.85820512  0.68288122    -0.05100
C982        C  0.04814773  0.84446223  0.71689665    -0.32500
C983        C  0.02666458  0.87802114  0.73780253     0.36700
C984        C  0.01045177  0.92662265  0.72491028    -0.05500
C985        C  0.01618749  0.94100813  0.69110452    -0.32400
C986        C  0.03628605  0.90606567  0.66978487     0.36600
H987        H  0.06049311  0.80711019  0.72713825     0.17000
O988        O  0.02146219  0.86293475  0.77074038    -0.59900
H989        H  0.00544474  0.97974712  0.68129453     0.17000
O990        O  0.04060010  0.92031764  0.63661159    -0.60000
H991        H  0.01929187  0.90451730  0.62491628     0.44000
H992        H  0.04246307  0.87829890  0.78310536     0.44000
C993        C  0.89065627  0.86144340  0.68155335    -0.05100
C994        C  0.88913009  0.85459180  0.71665009    -0.32500
C995        C  0.90913486  0.88910946  0.73797858     0.36700
C996        C  0.93026955  0.93215606  0.72433614    -0.05500
C997        C  0.93015412  0.94119403  0.68947237    -0.32400
C998        C  0.91117165  0.90532721  0.66796337     0.36600
H999        H  0.87319637  0.82127569  0.72754675     0.17000
O1000       O  0.90785733  0.88053145  0.77211789    -0.59900
H1001       H  0.94463073  0.97620986  0.67890505     0.17000
O1002       O  0.91253888  0.91384291  0.63384921    -0.60000
H1003       H  0.89284172  0.94065549  0.62905506     0.44000
H1004       H  0.93010546  0.85948601  0.77751288     0.44000
C1005       C  0.93277655  0.07290361  0.81612375    -0.05100
C1006       C  0.93821113  0.13109480  0.81529776    -0.32500
C1007       C  0.91874108  0.16659213  0.83673698     0.36700
C1008       C  0.89303543  0.14399038  0.85886278    -0.05500
C1009       C  0.88751602  0.08610491  0.85976087    -0.32400
C1010       C  0.90729058  0.05048236  0.83861808     0.36600
H1011       H  0.95740550  0.14896605  0.79784948     0.17000
O1012       O  0.92425922  0.22335537  0.83522095    -0.59900
H1013       H  0.86786807  0.06855042  0.87688800     0.17000
O1014       O  0.90240688  0.99366262  0.84079896    -0.60000
H1015       H  0.88001404  0.98576216  0.82807310     0.44000
H1016       H  0.94079059  0.23210471  0.85412021     0.44000
C1017       C  0.16311463  0.36913746  0.96449499    -0.05100
C1018       C  0.19984785  0.37730109  0.95841169    -0.32500
C1019       C  0.21941373  0.41806957  0.97604135     0.36700
C1020       C  0.20203859  0.45494177  0.99915707    -0.05500
C1021       C  0.16524088  0.44475493  0.00590848    -0.32400
C1022       C  0.14590991  0.40320826  0.98869525     0.36600
H1023       H  0.21392220  0.35100016  0.94037509     0.17000
O1024       O  0.25483073  0.42357713  0.46957402    -0.59900
H1025       H  0.15110842  0.46766541  0.02538448     0.17000
O1026       O  0.11020407  0.39598899  0.99619645    -0.60000
H1027       H  0.09715403  0.42151004  0.98081754     0.44000
H1028       H  0.26597948  0.38889351  0.47844628     0.44000
C1029       C  0.16277974  0.12775900  0.96306223    -0.05100
C1030       C  0.15742373  0.12239502  0.99778641    -0.32500
C1031       C  0.17503473  0.08083405  0.01616113     0.36700
C1032       C  0.19870802  0.04238121  0.99991721    -0.05500
C1033       C  0.20454791  0.04952331  0.96495488    -0.32400
C1034       C  0.18635915  0.09054227  0.94660955     0.36600
H1035       H  0.13982934  0.15123020  0.01107272     0.17000
O1036       O  0.16897381  0.07844128  0.54974367    -0.59900
H1037       H  0.22402744  0.02463942  0.95133811     0.17000
O1038       O  0.19135354  0.09298904  0.91239411    -0.60000
H1039       H  0.21409939  0.11400461  0.90925211     0.44000
H1040       H  0.14342598  0.06764156  0.55276276     0.44000
C1041       C  0.05351680  0.35876195  0.85998219    -0.05100
C1042       C  0.06085807  0.41615303  0.85921534    -0.32500
C1043       C  0.04056559  0.45148651  0.83868064     0.36700
C1044       C  0.01310887  0.42908034  0.81806802    -0.05500
C1045       C  0.00597971  0.37134330  0.81897556    -0.32400
C1046       C  0.02560105  0.33638613  0.84022173     0.36600
H1047       H  0.08221573  0.43351930  0.87462812     0.17000
O1048       O  0.04773767  0.50785500  0.83887064    -0.59900
H1049       H  0.98545049  0.35324845  0.80291260     0.17000
O1050       O  0.01829130  0.28003770  0.84055449    -0.60000
H1051       H  0.00246590  0.27444611  0.86036776     0.44000
H1052       H  0.03140322  0.52401351  0.85613824     0.44000
C1053       C  0.01304281  0.06816467  0.81590261    -0.05100
C1054       C  0.00975797  0.06360445  0.85099111    -0.32500
C1055       C  0.03054076  0.09740731  0.87235192     0.36700
C1056       C  0.05516370  0.13589682  0.85852369    -0.05500
C1057       C  0.05853338  0.13972903  0.82339385    -0.32400
C1058       C  0.03743636  0.10674498  0.80217755     0.36600
H1059       H  0.99106527  0.03383819  0.86176073     0.17000
O1060       O  0.02665155  0.09238160  0.90656263    -0.59900
H1061       H  0.07680657  0.16973194  0.81223815     0.17000
O1062       O  0.04029703  0.11326554  0.76795673    -0.60000
H1063       H  0.02087632  0.13982781  0.76186505     0.44000
H1064       H  0.04410977  0.06304777  0.91323014     0.44000
loop_ 
_geom_bond_atom_site_label_1 
_geom_bond_atom_site_label_2 
_geom_bond_distance 
_geom_bond_site_symmetry_2 
_ccdc_geom_bond_type 
O1           Ni9   1.913       .  S
O1           C11   1.280       .  A
O2           Ni9   1.915       .  S
O2           C12   1.281       .  A
O3           Ni9   1.907       .  S
O3           C13   1.280       .  A
O4           Ni9   1.913       .  S
O4           C14   1.281       .  A
O5          Ni10   1.918       .  S
O5           C14   1.282       .  A
O6          Ni10   1.913       .  S
O6           C13   1.280       .  A
O7          Ni10   1.909       .  S
O7           C12   1.281       .  A
O8          Ni10   1.909       .  S
O8           C11   1.278       .  A
Ni9         Ni10   2.389       .  S
C11         C509   1.458       .  S
C12         C497   1.477       .  S
C13         C524   1.471       .  S
C14         C485   1.484       .  S
C15         C473   1.481       .  S
C15          C16   1.412       .  A
C15          C20   1.399       .  A
C16         C521   1.473   1_655  S
C16          C17   1.400   1_645  A
C17          C18   1.396   1_455  A
C17          H22   1.085       .  S
C18         C452   1.478   1_655  S
C18          C19   1.411       .  A
C19         C464   1.472       .  S
C19          C20   1.400   1_565  A
C20          H21   1.085       .  S
C23         C428   1.475       .  S
C23          C24   1.412       .  A
C23          C28   1.401       .  A
C24         C512   1.482   1_655  S
C24          C25   1.397   1_655  A
C25          C26   1.401   1_455  A
C25          H30   1.085       .  S
C26         C413   1.478   1_655  S
C26          C27   1.417       .  A
C27         C440   1.487       .  S
C27          C28   1.401       .  A
C28          H29   1.085       .  S
O31         Ni39   1.912       .  S
O31          C41   1.280       .  A
O32         Ni39   1.901       .  S
O32          C42   1.279       .  A
O33         Ni39   1.917       .  S
O33          C43   1.282       .  A
O34         Ni39   1.915       .  S
O34          C44   1.281       .  A
O35         Ni40   1.914       .  S
O35          C44   1.280       .  A
O36         Ni40   1.918       .  S
O36          C43   1.282       .  A
O37         Ni40   1.916       .  S
O37          C42   1.282       .  A
O38         Ni40   1.921       .  S
O38          C41   1.283       .  A
Ni39        Ni40   2.388       .  S
C41         C392   1.483       .  S
C42         C416   1.472       .  S
C43         C404   1.485       .  S
C44         C449   1.469       .  S
C45         C341   1.562       .  S
C45         C368   1.565       .  S
C45         C888   1.563   1_554  S
C45         C909   1.559   1_554  S
C46         C308   1.560       .  S
C46         C320   1.558   1_545  S
C46         C825   1.564   1_544  S
C46         C861   1.563       .  S
O47         Ni55   1.914       .  S
O47          C57   1.279       .  A
O48         Ni55   1.914       .  S
O48          C58   1.281       .  A
O49         Ni55   1.921       .  S
O49          C59   1.282       .  A
O50         Ni55   1.928       .  S
O50          C60   1.284       .  A
O51         Ni56   1.913       .  S
O51          C60   1.280       .  A
O52         Ni56   1.911       .  S
O52          C59   1.280       .  A
O53         Ni56   1.917       .  S
O53          C58   1.282       .  A
O54         Ni56   1.910       .  S
O54          C57   1.279       .  A
Ni55        Ni56   2.388       .  S
C57         C272   1.460       .  S
C58         C305   1.486       .  S
C59         C281   1.478       .  S
C60         C344   1.485       .  S
O61         Ni69   1.920       .  S
O61          C71   1.282       .  A
O62         Ni69   1.913       .  S
O62          C72   1.279       .  A
O63         Ni69   1.918       .  S
O63          C73   1.282       .  A
O64         Ni69   1.915       .  S
O64          C74   1.281       .  A
O65         Ni70   1.914       .  S
O65          C74   1.280       .  A
O66         Ni70   1.923       .  S
O66          C73   1.283       .  A
O67         Ni70   1.918       .  S
O67          C72   1.280       .  A
O68         Ni70   1.916       .  S
O68          C71   1.282       .  A
Ni69        Ni70   2.388       .  S
C71         C353   1.485       .  S
C72         C245   1.465       .  S
C73         C296   1.492       .  S
C74         C257   1.473       .  S
O75         Ni83   1.924       .  S
O75          C85   1.283       .  A
O76         Ni83   1.924       .  S
O76          C86   1.283       .  A
O77         Ni83   1.916       .  S
O77          C87   1.281       .  A
O78         Ni83   1.917       .  S
O78          C88   1.280       .  A
O79         Ni84   1.911       .  S
O79          C88   1.280       .  A
O80         Ni84   1.917       .  S
O80          C87   1.282       .  A
O81         Ni84   1.902       .  S
O81          C86   1.279       .  A
O82         Ni84   1.910       .  S
O82          C85   1.280       .  A
Ni83        Ni84   2.387       .  S
C85         C200   1.484       .  S
C86         C221   1.476       .  S
C87         C209   1.484       .  S
C88         C233   1.468       .  S
C89         C188   1.571       .  S
C89         C389   1.560   1_545  S
C89         C744   1.566   1_544  S
C89        C1032   1.556   1_554  S
O90         Ni98   1.917       .  S
O90         C100   1.280       .  A
O91         Ni98   1.917       .  S
O91         C101   1.282       .  A
O92         Ni98   1.920       .  S
O92         C102   1.281       .  A
O93         Ni98   1.927       .  S
O93         C103   1.283       .  A
O94         Ni99   1.915       .  S
O94         C103   1.282       .  A
O95         Ni99   1.911       .  S
O95         C102   1.280       .  A
O96         Ni99   1.920       .  S
O96         C101   1.282       .  A
O97         Ni99   1.914       .  S
O97         C100   1.279       .  A
Ni98        Ni99   2.388       .  S
C100        C173   1.463       .  S
C101        C149   1.486       .  S
C102        C161   1.475       .  S
C103        C185   1.489       .  S
C104        C152   1.565       .  S
C104        C401   1.565       .  S
C104        C729   1.560   1_554  S
C104       C1020   1.559   1_554  S
C105        C284   1.481       .  S
C105        C106   1.414       .  A
C105        C110   1.402   1_545  A
C106        C176   1.482       .  S
C106        C107   1.400   1_545  A
C107        C108   1.404       .  A
C107        H112   1.085       .  S
C108        C224   1.484       .  S
C108        C109   1.417       .  A
C109        C248   1.487       .  S
C109        C110   1.402       .  A
C110        H111   1.085       .  S
C113        C164   1.480       .  S
C113        C114   1.414       .  A
C113        C118   1.401       .  A
C114        C269   1.483       .  S
C114        C115   1.403       .  A
C115        C116   1.401       .  A
C115        H120   1.084       .  S
C116        C260   1.480       .  S
C116        C117   1.411       .  A
C117        C236   1.475       .  S
C117        C118   1.400       .  A
C118        H119   1.085       .  S
O121       Ni129   1.925       .  S
O121        C131   1.284       .  A
O122       Ni129   1.917       .  S
O122        C132   1.282       .  A
O123       Ni129   1.915       .  S
O123        C133   1.281       .  A
O124       Ni129   1.914       .  S
O124        C134   1.279       .  A
O125       Ni130   1.912       .  S
O125        C134   1.279       .  A
O126       Ni130   1.911       .  S
O126        C133   1.280       .  A
O127       Ni130   1.903       .  S
O127        C132   1.279       .  A
O128       Ni130   1.912       .  S
O128        C131   1.280       .  A
Ni129      Ni130   2.389       .  S
C131        C332   1.487       .  S
C132        C425   1.471       .  S
C133        C380   1.478       .  S
C134        C476   1.461       .  S
O135       Ni143   1.917       .  S
O135        C145   1.280       .  A
O136       Ni143   1.918       .  S
O136        C146   1.281       .  A
O137       Ni143   1.920       .  S
O137        C147   1.282       .  A
O138       Ni143   1.929       .  S
O138        C148   1.285       .  A
O139       Ni144   1.902       .  S
O139        C148   1.279       .  A
O140       Ni144   1.898       .  S
O140        C147   1.277       .  A
O141       Ni144   1.921       .  S
O141        C146   1.283       .  A
O142       Ni144   1.919       .  S
O142        C145   1.281       .  A
Ni143      Ni144   2.388       .  S
C145        C437   1.467       .  S
C146        C317   1.489       .  S
C147        C461   1.468       .  S
C148        C365   1.484       .  S
C149        C150   1.402       .  A
C149        C154   1.406       .  A
C150        C151   1.404       .  A
C150        H155   1.084       .  S
C151        C152   1.427       .  A
C151        O156   1.371       .  S
C152        C153   1.416       .  A
C153        C154   1.397       .  A
C153        H157   1.083       .  S
C154        O158   1.372       .  S
O156        H160   0.992       .  S
O158        H159   0.992       .  S
C161        C162   1.404       .  A
C161        C166   1.410       .  A
C162        C163   1.403       .  A
C162        H167   1.084       .  S
C163        C164   1.408       .  A
C163        O168   1.373       .  S
C164        C165   1.400       .  A
C165        C166   1.396       .  A
C165        H169   1.084       .  S
C166        O170   1.372       .  S
O168        H172   0.992       .  S
O170        H171   0.992       .  S
C173        C174   1.400       .  A
C173        C178   1.404       .  A
C174        C175   1.397       .  A
C174        H179   1.084       .  S
C175        C176   1.408       .  A
C175        O180   1.371       .  S
C176        C177   1.406       .  A
C177        C178   1.401       .  A
C177        H181   1.084   1_545  S
C178        O182   1.372       .  S
O180        H184   0.992       .  S
O182        H183   0.992       .  S
C185        C186   1.402       .  A
C185        C190   1.406       .  A
C186        C187   1.403       .  A
C186        H191   1.084       .  S
C187        C188   1.428       .  A
C187        O192   1.371       .  S
C188        C189   1.419       .  A
C189        C190   1.402       .  A
C189        H193   1.083   1_554  S
C190        O194   1.371       .  S
O192        H196   0.992       .  S
O194        H195   0.992       .  S
C197        C202   1.426       .  A
C197        C730   1.417       .  A
C197        C636   1.560       .  S
C198        C199   1.399       .  A
C198        C729   1.417   1_554  A
C198        H203   1.083       .  S
C199        C732   1.404   1_554  A
C199        O204   1.371       .  S
C200        C201   1.402       .  A
C200        C731   1.404       .  A
C201        C202   1.403       .  A
C201        H205   1.084       .  S
C202        O206   1.372       .  S
O204        H208   0.992       .  S
O206        H207   0.992       .  S
C209        C210   1.398       .  A
C209        C746   1.409       .  A
C210        C211   1.399       .  A
C210        H215   1.084       .  S
C211        C212   1.426       .  A
C211        O216   1.371       .  S
C212        C745   1.416       .  A
C212        C621   1.567   1_565  S
C213        C214   1.399   1_554  A
C213        C744   1.415   1_554  A
C213        H217   1.079       .  S
C214        C741   1.409       .  A
C214        O218   1.372       .  S
O216        H220   0.992       .  S
O218        H219   0.992       .  S
C221        C222   1.405       .  A
C221        C226   1.409       .  A
C222        C223   1.393       .  A
C222        H227   1.084       .  S
C223        C224   1.407       .  A
C223        O228   1.372       .  S
C224        C225   1.406       .  A
C225        C226   1.402       .  A
C225        H229   1.083       .  S
C226        O230   1.371       .  S
O228        H232   0.992       .  S
O230        H231   0.992       .  S
C233        C234   1.402       .  A
C233        C238   1.407       .  A
C234        C235   1.396       .  A
C234        H239   1.084       .  S
C235        C236   1.404       .  A
C235        O240   1.372       .  S
C236        C237   1.403       .  A
C237        C238   1.401       .  A
C237        H241   1.083       .  S
C238        O242   1.372       .  S
O240        H244   0.992       .  S
O242        H243   0.992       .  S
C245        C246   1.399       .  A
C245        C250   1.405       .  A
C246        C247   1.401       .  A
C246        H251   1.084       .  S
C247        C248   1.413       .  A
C247        O252   1.372   1_565  S
C248        C249   1.404       .  A
C249        C250   1.397       .  A
C249        H253   1.083       .  S
C250        O254   1.372       .  S
O252        H256   0.992       .  S
O254        H255   0.991       .  S
C257        C258   1.403       .  A
C257        C262   1.409       .  A
C258        C259   1.397       .  A
C258        H263   1.084       .  S
C259        C260   1.407       .  A
C259        O264   1.372       .  S
C260        C261   1.403       .  A
C261        C262   1.400       .  A
C261        H265   1.082       .  S
C262        O266   1.372       .  S
O264        H268   0.992       .  S
O266        H267   0.992       .  S
C269        C270   1.404       .  A
C269        C274   1.411       .  A
C270        C271   1.397       .  A
C270        H275   1.083       .  S
C271        C272   1.405       .  A
C271        O276   1.372       .  S
C272        C273   1.398       .  A
C273        C274   1.400       .  A
C273        H277   1.084       .  S
C274        O278   1.372       .  S
O276        H280   0.992       .  S
O278        H279   0.992       .  S
C281        C282   1.405       .  A
C281        C286   1.411       .  A
C282        C283   1.404       .  A
C282        H287   1.083       .  S
C283        C284   1.407       .  A
C283        O288   1.372       .  S
C284        C285   1.401       .  A
C285        C286   1.396       .  A
C285        H289   1.084       .  S
C286        O290   1.372       .  S
O288        H292   0.992       .  S
O290        H291   0.992       .  S
C293        C294   1.416       .  A
C293        C298   1.424       .  A
C293        C578   1.564   1_565  S
C294        C295   1.399       .  A
C294        H831   1.082       .  S
C295        C296   1.408       .  A
C295        O300   1.371       .  S
C296        C297   1.404       .  A
C297        C298   1.404       .  A
C297        H301   1.083       .  S
C298        O302   1.372       .  S
H299        C826   1.082       .  S
O300        H304   0.992       .  S
O302        H303   0.992       .  S
C305        C306   1.401       .  A
C305        C310   1.409       .  A
C306        C307   1.401       .  A
C306        H311   1.083       .  S
C307        C308   1.421       .  A
C307        O312   1.371       .  S
C308        C309   1.416       .  A
C309        C310   1.399       .  A
C309        H313   1.081       .  S
C310        O314   1.372       .  S
O312        H316   0.992       .  S
O314        H315   0.992       .  S
C317        C318   1.403       .  A
C317        C322   1.408       .  A
C318        C319   1.404       .  A
C318        H323   1.083       .  S
C319        C320   1.425       .  A
C319        O324   1.372       .  S
C320        C321   1.415       .  A
C321        C322   1.398       .  A
C321        H325   1.081       .  S
C322        O326   1.372       .  S
O324        H328   0.992       .  S
O326        H327   0.992       .  S
C329        C330   1.415       .  A
C329        C866   1.427       .  A
C329        C578   1.562       .  S
C330        C331   1.397       .  A
C330        H335   1.082       .  S
C331        C332   1.407       .  A
C331        O336   1.372       .  S
C332        C865   1.401       .  A
C333        C334   1.407   1_556  A
C333        C864   1.402       .  A
C333        H337   1.084       .  S
C334        C861   1.427       .  A
C334        O338   1.373       .  S
O336        H340   0.992       .  S
O338        H339   0.992       .  S
C341        C342   1.414       .  A
C341        C346   1.426       .  A
C342        C343   1.402       .  A
C342        H347   1.079       .  S
C343        C344   1.409       .  A
C343        O348   1.372       .  S
C344        C345   1.399       .  A
C345        C346   1.402       .  A
C345        H349   1.084       .  S
C346        O350   1.373   1_554  S
O348        H352   0.992       .  S
O350        H883   0.991       .  S
H351        O882   0.991       .  S
C353        C354   1.401       .  A
C353        C358   1.406       .  A
C354        C355   1.403       .  A
C354        H359   1.084       .  S
C355        C356   1.427       .  A
C355        O360   1.372       .  S
C356        C357   1.417       .  A
C356        C577   1.564       .  S
C357        C358   1.398       .  A
C357        H361   1.083       .  S
C358        O362   1.372       .  S
O360        H364   0.992       .  S
O362        H363   0.992       .  S
C365        C366   1.402       .  A
C365        C370   1.405       .  A
C366        C367   1.399       .  A
C366        H371   1.084       .  S
C367        C368   1.420       .  A
C367        O372   1.372       .  S
C368        C369   1.421       .  A
C369        C370   1.402       .  A
C369        H373   1.080       .  S
C370        O374   1.372       .  S
O372        H376   0.992       .  S
O374        H375   0.992       .  S
C377        C378   1.414       .  A
C377        C382   1.423       .  A
C377        C577   1.560       .  S
C378        C379   1.397       .  A
C378        H383   1.079       .  S
C379        C380   1.407       .  A
C379        O384   1.372       .  S
C380        C381   1.398       .  A
C381        C382   1.398       .  A
C381        H385   1.084       .  S
C382        O918   1.373       .  S
O384        H388   0.992       .  S
O386        C914   1.373       .  S
O386        H919   0.992       .  S
H387        O918   0.992       .  S
C389        C390   1.415       .  A
C389        C394   1.428       .  A
C390        C391   1.395       .  A
C390        H395   1.083       .  S
C391        C392   1.405       .  A
C391        O396   1.372       .  S
C392        C393   1.401       .  A
C393        C394   1.405       .  A
C393        H397   1.084       .  S
C394        O398   1.373       .  S
O396        H400   0.992       .  S
O398        H399   0.992   1_554  S
C401        C402   1.416       .  A
C401        C406   1.424       .  A
C402        C403   1.400       .  A
C402        H407   1.080       .  S
C403        C404   1.408       .  A
C403        O408   1.372       .  S
C404        C405   1.400       .  A
C405        C406   1.401       .  A
C405        H409   1.084       .  S
C406        O942   1.371   1_554  S
O408        H412   0.992       .  S
O410        C938   1.371       .  S
O410        H411   0.992       .  S
C413        C414   1.403       .  A
C413        C418   1.409       .  A
C414        C415   1.397       .  A
C414        H419   1.083   1_455  S
C415        C416   1.409       .  A
C415        O420   1.371       .  S
C416        C417   1.404       .  A
C417        C418   1.393       .  A
C417        H421   1.084       .  S
C418        O422   1.373       .  S
O420        H424   0.992       .  S
O422        H423   0.992       .  S
C425        C426   1.403       .  A
C425        C430   1.410       .  A
C426        C427   1.401       .  A
C426        H431   1.083       .  S
C427        C428   1.407       .  A
C427        O432   1.373       .  S
C428        C429   1.400       .  A
C429        C430   1.394       .  A
C429        H433   1.084       .  S
C430        O434   1.373       .  S
O432        H436   0.992       .  S
O434        H435   0.992       .  S
C437        C438   1.399       .  A
C437        C442   1.406       .  A
C438        C439   1.401       .  A
C438        H443   1.084       .  S
C439        C440   1.412       .  A
C439        O444   1.372       .  S
C440        C441   1.404       .  A
C441        C442   1.399       .  A
C441        H445   1.083       .  S
C442        O446   1.372       .  S
O444        H448   0.992       .  S
O446        H447   0.991       .  S
C449        C450   1.403       .  A
C449        C454   1.405       .  A
C450        C451   1.399       .  A
C450        H455   1.084       .  S
C451        C452   1.406       .  A
C451        O456   1.372       .  S
C452        C453   1.403       .  A
C453        C454   1.399       .  A
C453        H457   1.082       .  S
C454        O458   1.371       .  S
O456        H460   0.992       .  S
O458        H459   0.992       .  S
C461        C462   1.405       .  A
C461        C466   1.406       .  A
C462        C463   1.393       .  A
C462        H467   1.084       .  S
C463        C464   1.405       .  A
C463        O468   1.372       .  S
C464        C465   1.402       .  A
C465        C466   1.397       .  A
C465        H469   1.081       .  S
C466        O470   1.371       .  S
O468        H472   0.992       .  S
O470        H471   0.992       .  S
C473        C474   1.404       .  A
C473        C478   1.409       .  A
C474        C475   1.398       .  A
C474        H479   1.083       .  S
C475        C476   1.407       .  A
C475        O480   1.372       .  S
C476        C477   1.397       .  A
C477        C478   1.399       .  A
C477        H481   1.084       .  S
C478        O482   1.372   1_545  S
O480        H484   0.991       .  S
O482        H483   0.992       .  S
C485        C486   1.401       .  A
C485        C490   1.408       .  A
C486        C487   1.399       .  A
C486        H491   1.084       .  S
C487        C488   1.422       .  A
C487       O1024   1.372       .  S
C488        C489   1.415       .  A
C488        C636   1.558       .  S
C489        C490   1.400       .  A
C489        H493   1.080       .  S
C490        O494   1.372       .  S
O492       C1019   1.372       .  S
O492        H496   0.992       .  S
O494        H495   0.992       .  S
C497        C498   1.399       .  A
C497        C502   1.406       .  A
C498        C499   1.397       .  A
C498        H503   1.084       .  S
C499        C500   1.423       .  A
C499       O1036   1.372       .  S
C500        C501   1.416       .  A
C500        C621   1.556       .  S
C501        C502   1.399       .  A
C501        H505   1.079       .  S
C502        O506   1.372       .  S
O504       C1031   1.372       .  S
O504        H508   0.992       .  S
O506        H507   0.992       .  S
C509        C510   1.397       .  A
C509        C514   1.405       .  A
C510        C511   1.398       .  A
C510        H515   1.084       .  S
C511        C512   1.412       .  A
C511        O516   1.372       .  S
C512        C513   1.404       .  A
C513        C514   1.396       .  A
C513        H517   1.083   1_455  S
C514        O518   1.372       .  S
O516        H520   0.992       .  S
O518        H519   0.992       .  S
C521        C522   1.402       .  A
C521        C526   1.405       .  A
C522        C523   1.399       .  A
C522        H527   1.084   1_455  S
C523        C524   1.410       .  A
C523        O528   1.371       .  S
C524        C525   1.403       .  A
C525        C526   1.391       .  A
C525        H529   1.084       .  S
C526        O530   1.372       .  S
O528        H532   0.992       .  S
O530        H531   0.992       .  S
O533       Ni541   1.913       .  S
O533        C543   1.280       .  A
O534       Ni541   1.915       .  S
O534        C544   1.281       .  A
O535       Ni541   1.908       .  S
O535        C545   1.280       .  A
O536       Ni541   1.913       .  S
O536        C546   1.281       .  A
O537       Ni542   1.918       .  S
O537        C546   1.282       .  A
O538       Ni542   1.914       .  S
O538        C545   1.280       .  A
O539       Ni542   1.910       .  S
O539        C544   1.280       .  A
O540       Ni542   1.908       .  S
O540        C543   1.278       .  A
Ni541      Ni542   2.389       .  S
C543       C1041   1.458       .  S
C544       C1029   1.478       .  S
C545       C1056   1.472       .  S
C546       C1017   1.484       .  S
C547       C1005   1.482       .  S
C547        C548   1.413       .  A
C547        C552   1.400       .  A
C548       C1053   1.474   1_655  S
C548        C549   1.401   1_645  A
C549        C550   1.397   1_455  A
C549        H554   1.085       .  S
C550        C984   1.480   1_655  S
C550        C551   1.412       .  A
C551        C996   1.472       .  S
C551        C552   1.401   1_565  A
C552        H553   1.085       .  S
C555        C960   1.477       .  S
C555        C556   1.413       .  A
C555        C560   1.401       .  A
C556       C1044   1.483   1_655  S
C556        C557   1.398   1_655  A
C557        C558   1.401   1_455  A
C557        H562   1.085       .  S
C558        C945   1.479   1_655  S
C558        C559   1.417       .  A
C559        C972   1.487       .  S
C559        C560   1.401       .  A
C560        H561   1.085       .  S
O563       Ni571   1.910       .  S
O563        C573   1.280       .  A
O564       Ni571   1.900       .  S
O564        C574   1.278       .  A
O565       Ni571   1.918       .  S
O565        C575   1.282       .  A
O566       Ni571   1.916       .  S
O566        C576   1.281       .  A
O567       Ni572   1.916       .  S
O567        C576   1.280       .  A
O568       Ni572   1.918       .  S
O568        C575   1.282       .  A
O569       Ni572   1.918       .  S
O569        C574   1.282       .  A
O570       Ni572   1.922       .  S
O570        C573   1.283       .  A
Ni571      Ni572   2.388       .  S
C573        C924   1.483       .  S
C574        C948   1.473       .  S
C575        C936   1.485       .  S
C576        C981   1.471       .  S
C577        C873   1.564       .  S
C577        C900   1.566       .  S
C578        C840   1.562       .  S
C578        C852   1.558   1_545  S
O579       Ni587   1.914       .  S
O579        C589   1.279       .  A
O580       Ni587   1.915       .  S
O580        C590   1.281       .  A
O581       Ni587   1.924       .  S
O581        C591   1.282       .  A
O582       Ni587   1.929       .  S
O582        C592   1.285       .  A
O583       Ni588   1.916       .  S
O583        C592   1.280       .  A
O584       Ni588   1.911       .  S
O584        C591   1.281       .  A
O585       Ni588   1.919       .  S
O585        C590   1.282       .  A
O586       Ni588   1.910       .  S
O586        C589   1.279       .  A
Ni587      Ni588   2.388       .  S
C589        C804   1.460       .  S
C590        C837   1.487       .  S
C591        C813   1.479       .  S
C592        C876   1.488       .  S
O593       Ni601   1.919       .  S
O593        C603   1.281       .  A
O594       Ni601   1.916       .  S
O594        C604   1.280       .  A
O595       Ni601   1.915       .  S
O595        C605   1.281       .  A
O596       Ni601   1.911       .  S
O596        C606   1.281       .  A
O597       Ni602   1.917       .  S
O597        C606   1.281       .  A
O598       Ni602   1.927       .  S
O598        C605   1.284       .  A
O599       Ni602   1.919       .  S
O599        C604   1.281       .  A
O600       Ni602   1.916       .  S
O600        C603   1.282       .  A
Ni601      Ni602   2.387       .  S
C603        C885   1.484       .  S
C604        C777   1.468       .  S
C605        C828   1.492       .  S
C606        C789   1.477       .  S
O607       Ni615   1.928       .  S
O607        C617   1.284       .  A
O608       Ni615   1.922       .  S
O608        C618   1.282       .  A
O609       Ni615   1.912       .  S
O609        C619   1.280       .  A
O610       Ni615   1.914       .  S
O610        C620   1.279       .  A
O611       Ni616   1.916       .  S
O611        C620   1.280       .  A
O612       Ni616   1.921       .  S
O612        C619   1.283       .  A
O613       Ni616   1.903       .  S
O613        C618   1.279       .  A
O614       Ni616   1.907       .  S
O614        C617   1.279       .  A
Ni615      Ni616   2.388       .  S
C617        C732   1.484       .  S
C618        C753   1.476       .  S
C619        C741   1.484       .  S
C620        C765   1.464       .  S
C621        C720   1.571       .  S
C621        C921   1.559   1_545  S
O622       Ni630   1.917       .  S
O622        C632   1.280       .  A
O623       Ni630   1.917       .  S
O623        C633   1.282       .  A
O624       Ni630   1.919       .  S
O624        C634   1.281       .  A
O625       Ni630   1.924       .  S
O625        C635   1.282       .  A
O626       Ni631   1.920       .  S
O626        C635   1.283       .  A
O627       Ni631   1.915       .  S
O627        C634   1.281       .  A
O628       Ni631   1.918       .  S
O628        C633   1.282       .  A
O629       Ni631   1.912       .  S
O629        C632   1.279       .  A
Ni630      Ni631   2.388       .  S
C632        C705   1.463       .  S
C633        C681   1.485       .  S
C634        C693   1.477       .  S
C635        C717   1.490       .  S
C636        C684   1.565       .  S
C636        C933   1.565       .  S
C637        C816   1.482       .  S
C637        C638   1.412       .  A
C637        C642   1.403   1_545  A
C638        C708   1.480       .  S
C638        C639   1.399   1_545  A
C639        C640   1.404       .  A
C639        H644   1.085       .  S
C640        C756   1.482       .  S
C640        C641   1.418       .  A
C641        C780   1.490       .  S
C641        C642   1.404       .  A
C642        H643   1.084       .  S
C645        C696   1.481       .  S
C645        C646   1.412       .  A
C645        C650   1.402       .  A
C646        C801   1.480       .  S
C646        C647   1.401       .  A
C647        C648   1.402       .  A
C647        H652   1.084       .  S
C648        C792   1.484       .  S
C648        C649   1.417       .  A
C649        C768   1.487       .  S
C649        C650   1.405       .  A
C650        H651   1.085       .  S
O653       Ni661   1.926       .  S
O653        C663   1.284       .  A
O654       Ni661   1.918       .  S
O654        C664   1.282       .  A
O655       Ni661   1.916       .  S
O655        C665   1.281       .  A
O656       Ni661   1.916       .  S
O656        C666   1.280       .  A
O657       Ni662   1.912       .  S
O657        C666   1.279       .  A
O658       Ni662   1.910       .  S
O658        C665   1.280       .  A
O659       Ni662   1.904       .  S
O659        C664   1.279       .  A
O660       Ni662   1.913       .  S
O660        C663   1.280       .  A
Ni661      Ni662   2.389       .  S
C663        C864   1.489       .  S
C664        C957   1.473       .  S
C665        C912   1.477       .  S
C666       C1008   1.462       .  S
O667       Ni675   1.918       .  S
O667        C677   1.280       .  A
O668       Ni675   1.919       .  S
O668        C678   1.281       .  A
O669       Ni675   1.921       .  S
O669        C679   1.283       .  A
O670       Ni675   1.931       .  S
O670        C680   1.285       .  A
O671       Ni676   1.903       .  S
O671        C680   1.279       .  A
O672       Ni676   1.899       .  S
O672        C679   1.277       .  A
O673       Ni676   1.922       .  S
O673        C678   1.283       .  A
O674       Ni676   1.919       .  S
O674        C677   1.281       .  A
Ni675      Ni676   2.388       .  S
C677        C969   1.468       .  S
C678        C849   1.489       .  S
C679        C993   1.468       .  S
C680        C897   1.486       .  S
C681        C682   1.402       .  A
C681        C686   1.405       .  A
C682        C683   1.404       .  A
C682        H687   1.084       .  S
C683        C684   1.427       .  A
C683        O688   1.371       .  S
C684        C685   1.417       .  A
C685        C686   1.397       .  A
C685        H689   1.083       .  S
C686        O690   1.372       .  S
O688        H692   0.992       .  S
O690        H691   0.992       .  S
C693        C694   1.405       .  A
C693        C698   1.409       .  A
C694        C695   1.404       .  A
C694        H699   1.084       .  S
C695        C696   1.409       .  A
C695        O700   1.373       .  S
C696        C697   1.401       .  A
C697        C698   1.396       .  A
C697        H701   1.084       .  S
C698        O702   1.372       .  S
O700        H704   0.992       .  S
O702        H703   0.992       .  S
C705        C706   1.400       .  A
C705        C710   1.404       .  A
C706        C707   1.397       .  A
C706        H711   1.084       .  S
C707        C708   1.407       .  A
C707        O712   1.371       .  S
C708        C709   1.405       .  A
C709        C710   1.401       .  A
C709        H713   1.084   1_545  S
C710        O714   1.372       .  S
O712        H716   0.992       .  S
O714        H715   0.992       .  S
C717        C718   1.401       .  A
C717        C722   1.407       .  A
C718        C719   1.404       .  A
C718        H723   1.084       .  S
C719        C720   1.428       .  A
C719        O724   1.371       .  S
C720        C721   1.418       .  A
C721        C722   1.402       .  A
C721        H725   1.083       .  S
C722        O726   1.371       .  S
O724        H728   0.992       .  S
O726        H727   0.992       .  S
C729        C734   1.426       .  A
C730        C731   1.398       .  A
C730        H735   1.083       .  S
C731        O736   1.371       .  S
C732        C733   1.403       .  A
C733        C734   1.402       .  A
C733        H737   1.084       .  S
C734        O738   1.372       .  S
O736        H740   0.992       .  S
O738        H739   0.992       .  S
C741        C742   1.398       .  A
C742        C743   1.400       .  A
C742        H747   1.084       .  S
C743        C744   1.426       .  A
C743        O748   1.371       .  S
C745        C746   1.401       .  A
C745        H749   1.079       .  S
C746        O750   1.372       .  S
O748        H752   0.992       .  S
O750        H751   0.992       .  S
C753        C754   1.404       .  A
C753        C758   1.410       .  A
C754        C755   1.393       .  A
C754        H759   1.084       .  S
C755        C756   1.406       .  A
C755        O760   1.372       .  S
C756        C757   1.406       .  A
C757        C758   1.402       .  A
C757        H761   1.083       .  S
C758        O762   1.371       .  S
O760        H764   0.992       .  S
O762        H763   0.992       .  S
C765        C766   1.401       .  A
C765        C770   1.402       .  A
C766        C767   1.398       .  A
C766        H771   1.084       .  S
C767        C768   1.411       .  A
C767        O772   1.371       .  S
C768        C769   1.407       .  A
C769        C770   1.399       .  A
C769        H773   1.084       .  S
C770        O774   1.371       .  S
O772        H776   0.992       .  S
O774        H775   0.992       .  S
C777        C778   1.400       .  A
C777        C782   1.406       .  A
C778        C779   1.402       .  A
C778        H783   1.084       .  S
C779        C780   1.413       .  A
C779        O784   1.372   1_565  S
C780        C781   1.405       .  A
C781        C782   1.399       .  A
C781        H785   1.083       .  S
C782        O786   1.372       .  S
O784        H788   0.992       .  S
O786        H787   0.992       .  S
C789        C790   1.403       .  A
C789        C794   1.411       .  A
C790        C791   1.394       .  A
C790        H795   1.084       .  S
C791        C792   1.409       .  A
C791        O796   1.372       .  S
C792        C793   1.405       .  A
C793        C794   1.401       .  A
C793        H797   1.083       .  S
C794        O798   1.371       .  S
O796        H800   0.992       .  S
O798        H799   0.992       .  S
C801        C802   1.404       .  A
C801        C806   1.410       .  A
C802        C803   1.398       .  A
C802        H807   1.083       .  S
C803        C804   1.406       .  A
C803        O808   1.372       .  S
C804        C805   1.398       .  A
C805        C806   1.399       .  A
C805        H809   1.084       .  S
C806        O810   1.372       .  S
O808        H812   0.992       .  S
O810        H811   0.992       .  S
C813        C814   1.405       .  A
C813        C818   1.411       .  A
C814        C815   1.406       .  A
C814        H819   1.083       .  S
C815        C816   1.408       .  A
C815        O820   1.372       .  S
C816        C817   1.400       .  A
C817        C818   1.396       .  A
C817        H821   1.084       .  S
C818        O822   1.372       .  S
O820        H824   0.992       .  S
O822        H823   0.992       .  S
C825        C826   1.416   1_556  A
C825        C830   1.424       .  A
C826        C827   1.400   1_554  A
C827        C828   1.407       .  A
C827        O832   1.371   1_556  S
C828        C829   1.404       .  A
C829        C830   1.404       .  A
C829        H833   1.083       .  S
C830        O834   1.372       .  S
O832        H836   0.992       .  S
O834        H835   0.992       .  S
C837        C838   1.401       .  A
C837        C842   1.409       .  A
C838        C839   1.402       .  A
C838        H843   1.083       .  S
C839        C840   1.421       .  A
C839        O844   1.371       .  S
C840        C841   1.416       .  A
C841        C842   1.399       .  A
C841        H845   1.080       .  S
C842        O846   1.372       .  S
O844        H848   0.992       .  S
O846        H847   0.992       .  S
C849        C850   1.403       .  A
C849        C854   1.408       .  A
C850        C851   1.404       .  A
C850        H855   1.083       .  S
C851        C852   1.425       .  A
C851        O856   1.372       .  S
C852        C853   1.415       .  A
C853        C854   1.398       .  A
C853        H857   1.081       .  S
C854        O858   1.372       .  S
O856        H860   0.992       .  S
O858        H859   0.992       .  S
C861        C862   1.415   1_554  A
C862        C863   1.397       .  A
C862        H867   1.082       .  S
C863        C864   1.408       .  A
C863        O868   1.372       .  S
C865        C866   1.406       .  A
C865        H869   1.084       .  S
C866        O870   1.373       .  S
O868        H872   0.992       .  S
O870        H871   0.992       .  S
C873        C874   1.415       .  A
C873        C878   1.426       .  A
C874        C875   1.403       .  A
C874        H879   1.079       .  S
C875        C876   1.410       .  A
C875        O880   1.372       .  S
C876        C877   1.399       .  A
C877        C878   1.402       .  A
C877        H881   1.084       .  S
C878        O882   1.373       .  S
O880        H884   0.992       .  S
C885        C886   1.401       .  A
C885        C890   1.405       .  A
C886        C887   1.403   1_556  A
C886        H891   1.084       .  S
C887        C888   1.427   1_554  A
C887        O892   1.372       .  S
C888        C889   1.417       .  A
C889        C890   1.398       .  A
C889        H893   1.083       .  S
C890        O894   1.372       .  S
O892        H896   0.992       .  S
O894        H895   0.992       .  S
C897        C898   1.402       .  A
C897        C902   1.405       .  A
C898        C899   1.399       .  A
C898        H903   1.084       .  S
C899        C900   1.420       .  A
C899        O904   1.372       .  S
C900        C901   1.422       .  A
C901        C902   1.403       .  A
C901        H905   1.080       .  S
C902        O906   1.372       .  S
O904        H908   0.992       .  S
O906        H907   0.992       .  S
C909        C910   1.414       .  A
C909        C914   1.423   1_556  A
C910        C911   1.397       .  A
C910        H915   1.079       .  S
C911        C912   1.407       .  A
C911        O916   1.372       .  S
C912        C913   1.398       .  A
C913        C914   1.398   1_556  A
C913        H917   1.084   1_556  S
O916        H920   0.992       .  S
C921        C922   1.414       .  A
C921        C926   1.428       .  A
C922        C923   1.395       .  A
C922        H927   1.083       .  S
C923        C924   1.406       .  A
C923        O928   1.372       .  S
C924        C925   1.401       .  A
C925        C926   1.405       .  A
C925        H929   1.084       .  S
C926        O930   1.373       .  S
O928        H932   0.992       .  S
O930        H931   0.992       .  S
C933        C934   1.416       .  A
C933        C938   1.423       .  A
C934        C935   1.401       .  A
C934        H939   1.080       .  S
C935        C936   1.408       .  A
C935        O940   1.372       .  S
C936        C937   1.400       .  A
C937        C938   1.401       .  A
C937        H941   1.084       .  S
O940        H944   0.992       .  S
O942        H943   0.992       .  S
C945        C946   1.403       .  A
C945        C950   1.409       .  A
C946        C947   1.397       .  A
C946        H951   1.083   1_455  S
C947        C948   1.409       .  A
C947        O952   1.371       .  S
C948        C949   1.405       .  A
C949        C950   1.393       .  A
C949        H953   1.084       .  S
C950        O954   1.373       .  S
O952        H956   0.992       .  S
O954        H955   0.992       .  S
C957        C958   1.404       .  A
C957        C962   1.411       .  A
C958        C959   1.401       .  A
C958        H963   1.083       .  S
C959        C960   1.407       .  A
C959        O964   1.373       .  S
C960        C961   1.400       .  A
C961        C962   1.394       .  A
C961        H965   1.084       .  S
C962        O966   1.373       .  S
O964        H968   0.992       .  S
O966        H967   0.991       .  S
C969        C970   1.400       .  A
C969        C974   1.406       .  A
C970        C971   1.402       .  A
C970        H975   1.084       .  S
C971        C972   1.412       .  A
C971        O976   1.372       .  S
C972        C973   1.404       .  A
C973        C974   1.399       .  A
C973        H977   1.083       .  S
C974        O978   1.372       .  S
O976        H980   0.992       .  S
O978        H979   0.991       .  S
C981        C982   1.404       .  A
C981        C986   1.406       .  A
C982        C983   1.399       .  A
C982        H987   1.084       .  S
C983        C984   1.406       .  A
C983        O988   1.372       .  S
C984        C985   1.403       .  A
C985        C986   1.400       .  A
C985        H989   1.082       .  S
C986        O990   1.371       .  S
O988        H992   0.992       .  S
O990        H991   0.992       .  S
C993        C994   1.405       .  A
C993        C998   1.406       .  A
C994        C995   1.393       .  A
C994        H999   1.084       .  S
C995        C996   1.405       .  A
C995       O1000   1.372       .  S
C996        C997   1.402       .  A
C997        C998   1.397       .  A
C997       H1001   1.081       .  S
C998       O1002   1.371       .  S
O1000      H1004   0.992       .  S
O1002      H1003   0.992       .  S
C1005      C1006   1.404       .  A
C1005      C1010   1.409       .  A
C1006      C1007   1.399       .  A
C1006      H1011   1.084       .  S
C1007      C1008   1.407       .  A
C1007      O1012   1.372       .  S
C1008      C1009   1.397       .  A
C1009      C1010   1.399       .  A
C1009      H1013   1.084       .  S
C1010      O1014   1.372   1_545  S
O1012      H1016   0.991       .  S
O1014      H1015   0.992       .  S
C1017      C1018   1.401       .  A
C1017      C1022   1.408       .  A
C1018      C1019   1.400       .  A
C1018      H1023   1.084       .  S
C1019      C1020   1.422       .  A
C1020      C1021   1.415   1_556  A
C1021      C1022   1.400   1_554  A
C1021      H1025   1.080       .  S
C1022      O1026   1.372       .  S
O1024      H1028   0.992       .  S
O1026      H1027   0.992       .  S
C1029      C1030   1.399       .  A
C1029      C1034   1.406       .  A
C1030      C1031   1.398   1_556  A
C1030      H1035   1.084   1_556  S
C1031      C1032   1.423   1_554  A
C1032      C1033   1.416       .  A
C1033      C1034   1.398       .  A
C1033      H1037   1.079       .  S
C1034      O1038   1.372       .  S
O1036      H1040   0.992       .  S
O1038      H1039   0.992       .  S
C1041      C1042   1.397       .  A
C1041      C1046   1.405       .  A
C1042      C1043   1.398       .  A
C1042      H1047   1.084       .  S
C1043      C1044   1.412       .  A
C1043      O1048   1.372       .  S
C1044      C1045   1.404       .  A
C1045      C1046   1.396       .  A
C1045      H1049   1.083   1_455  S
C1046      O1050   1.372       .  S
O1048      H1052   0.992       .  S
O1050      H1051   0.992       .  S
C1053      C1054   1.403       .  A
C1053      C1058   1.405       .  A
C1054      C1055   1.400       .  A
C1054      H1059   1.084   1_455  S
C1055      C1056   1.410       .  A
C1055      O1060   1.371       .  S
C1056      C1057   1.403       .  A
C1057      C1058   1.392       .  A
C1057      H1061   1.084       .  S
C1058      O1062   1.372       .  S
O1060      H1064   0.992       .  S
O1062      H1063   0.992       .  S
