geometry optimzed in LAMMPS
_audit_creation_date              2020-11-30 
_audit_creation_method            'lammps2cif' 
_symmetry_space_group_name_H-M    'P1' 
_symmetry_Int_Tables_number       1 
_symmetry_cell_setting            triclinic 
loop_ 
_symmetry_equiv_pos_as_xyz 
  x,y,z 
_cell_length_a                    32.06163523 
_cell_length_b                    32.3301811969864 
_cell_length_c                    56.93432647662189 
_cell_angle_alpha                 89.8736768488446 
_cell_angle_beta                  89.75554130416936 
_cell_angle_gamma                 89.9382979896721 
loop_ 
_atom_site_label 
_atom_site_type_symbol 
_atom_site_fract_x 
_atom_site_fract_y 
_atom_site_fract_z 
_atom_site_charge 
Fe1        Fe  0.00329353  0.38024245  0.88514735     1.65800
Fe2        Fe  0.44746388  0.37742595  0.93509953     1.73200
Fe3        Fe  0.05377716  0.37869873  0.93749668     1.54400
O4          O  0.08363803  0.33860579  0.91460741    -0.82200
O5          O  0.46199316  0.42765095  0.95565236    -0.80500
O6          O  0.04242430  0.33032264  0.88365464    -0.84700
O7          O  0.05278796  0.42044258  0.88386081    -0.79500
O8          O  0.03599372  0.32819363  0.95699750    -0.81300
O9          O  0.41962175  0.41795763  0.91137056    -0.84100
C10         C  0.07686664  0.43842576  0.89817486     0.96700
C11         C  0.07469388  0.32117791  0.89528720     1.04100
O12         O  0.50136556  0.37921154  0.91886437    -1.13000
O13         O  0.42816818  0.32702447  0.91604088    -0.75500
O14         O  0.45298239  0.34174124  0.88041587    -0.79000
O15         O  0.07729290  0.42922188  0.91980359    -0.79700
C16         C  0.42924526  0.32143447  0.89402667     0.95600
O17         O  0.46564638  0.43129453  0.88300025    -0.77600
O18         O  0.46796112  0.33663301  0.96090160    -0.82800
C19         C  0.49532551  0.43736649  0.96619889     0.98200
C20         C  0.50227010  0.31896657  0.96596384     1.04100
O21         O  0.03115113  0.41875184  0.96278182    -0.78500
C22         C  0.43119787  0.43804764  0.89319991     1.02400
Fe23       Fe  0.25402698  0.12962184  0.86996588     1.65800
Fe24       Fe  0.25163219  0.18214956  0.81779773     1.73200
Fe25       Fe  0.25318443  0.07636985  0.81816856     1.54400
O26         O  0.29731338  0.04973068  0.83968607    -0.82200
O27         O  0.20244412  0.16392794  0.79715614    -0.80500
O28         O  0.30296333  0.08896574  0.87155755    -0.84700
O29         O  0.21158559  0.08223277  0.87327906    -0.79500
O30         O  0.30100292  0.09446915  0.79609503    -0.81300
O31         O  0.20916902  0.20909009  0.84042790    -0.84100
C32         C  0.19486305  0.05601765  0.85974683     0.96700
C33         C  0.31372211  0.05808304  0.85934252     1.04100
O34         O  0.25292246  0.12936741  0.83529121    -1.13000
O35         O  0.30064541  0.20646516  0.83638010    -0.75500
O36         O  0.29660793  0.17700730  0.87164281    -0.79000
O37         O  0.20551833  0.05218580  0.83837866    -0.79700
C38         C  0.31253315  0.20287112  0.85750317     0.95600
O39         O  0.20519834  0.17033558  0.87261632    -0.77600
O40         O  0.29421640  0.16283998  0.79276647    -0.82800
C41         C  0.19216748  0.12945507  0.78835145     0.98200
C42         C  0.31097532  0.12883103  0.78686631     1.04100
O43         O  0.20901676  0.09547065  0.79420784    -0.78500
C44         C  0.19375161  0.20112840  0.86050941     1.02400
Fe45       Fe  0.25412779  0.37755850  0.61746564     1.65800
Fe46       Fe  0.19989701  0.37817219  0.56578218     1.73200
Fe47       Fe  0.30673884  0.37839020  0.56505490     1.54400
O48         O  0.33245707  0.42427254  0.58534108    -0.82200
O49         O  0.21851596  0.33307442  0.54266290    -0.80500
O50         O  0.29925458  0.42276261  0.61954365    -0.84700
O51         O  0.29830319  0.33118762  0.61927074    -0.79500
O52         O  0.28756535  0.42383736  0.54228221    -0.81300
O53         O  0.17416587  0.33212704  0.58650788    -0.84100
C54         C  0.32722184  0.31814525  0.60589576     0.96700
C55         C  0.32699632  0.43762599  0.60600584     1.04100
O56         O  0.25355875  0.37796187  0.58275653    -1.13000
O57         O  0.17441292  0.42335326  0.58672828    -0.75500
O58         O  0.21019984  0.42392275  0.62002682    -0.79000
O59         O  0.33310093  0.33306026  0.58557961    -0.79700
C60         C  0.18130387  0.43771808  0.60700623     0.95600
O61         O  0.20883455  0.33248655  0.62017318    -0.77600
O62         O  0.21836853  0.42431678  0.54282286    -0.82800
C63         C  0.25313482  0.31940292  0.53514782     0.98200
C64         C  0.25301715  0.43803292  0.53525047     1.04100
O65         O  0.28793873  0.33276056  0.54232265    -0.78500
C66         C  0.18018288  0.31846443  0.60711562     1.02400
Fe67       Fe  0.00330366  0.12714380  0.63672957     1.65800
Fe68       Fe  0.00370012  0.07474339  0.68907504     1.73200
Fe69       Fe  0.00137808  0.18077554  0.68838160     1.54400
O70         O  0.04935268  0.20560789  0.66864245    -0.82200
O71         O  0.45937637  0.09539315  0.71156490    -0.80500
O72         O  0.04715511  0.17368634  0.63420798    -0.84700
O73         O  0.45785144  0.17126526  0.63278722    -0.79500
O74         O  0.04496969  0.16230028  0.71295621    -0.81300
O75         O  0.45929007  0.05045298  0.66785838    -0.84100
C76         C  0.44402408  0.20034944  0.64548149     0.96700
C77         C  0.06218971  0.20104952  0.64770974     1.04100
O78         O  0.00283464  0.12754412  0.67142619    -1.13000
O79         O  0.04873755  0.04815165  0.66781630    -0.75500
O80         O  0.05141173  0.08518324  0.63489232    -0.79000
O81         O  0.45793495  0.20784699  0.66584664    -0.79700
C82         C  0.06414917  0.05571603  0.64771890     0.95600
O83         O  0.46051870  0.08280159  0.63349836    -0.77600
O84         O  0.05070656  0.09364447  0.71091274    -0.82800
C85         C  0.44381477  0.12971250  0.71800989     0.98200
C86         C  0.06102196  0.12827013  0.71946157     1.04100
O87         O  0.45550815  0.16422754  0.70970881    -0.78500
C88         C  0.44615830  0.05498844  0.64704758     1.02400
Fe89       Fe  0.24403159  0.13114901  0.38403257     1.65800
Fe90       Fe  0.29792406  0.13006958  0.43545249     1.73200
Fe91       Fe  0.19140194  0.13127801  0.43628949     1.54400
O92         O  0.16521562  0.17522673  0.41431220    -0.82200
O93         O  0.27962592  0.08258122  0.45735457    -0.80500
O94         O  0.20653754  0.18296003  0.38304417    -0.84700
O95         O  0.19285990  0.09349011  0.38136561    -0.79500
O96         O  0.21017744  0.17876283  0.45764241    -0.81300
O97         O  0.32319081  0.08628631  0.41319082    -0.84100
C98         C  0.16724856  0.07638911  0.39522756     0.96700
C99         C  0.17530858  0.19375554  0.39542722     1.04100
O100        O  0.24443664  0.13078842  0.41865547    -1.13000
O101        O  0.32283496  0.17765149  0.41582576    -0.75500
O102        O  0.29486642  0.16925433  0.38061530    -0.79000
O103        O  0.16619598  0.08373561  0.41705510    -0.79700
C104        C  0.32093803  0.18611312  0.39412283     0.95600
O105        O  0.28168455  0.07924420  0.38221293    -0.77600
O106        O  0.27936040  0.17372482  0.45962778    -0.82800
C107        C  0.24521534  0.07130716  0.46642158     0.98200
C108        C  0.24501999  0.18987358  0.46588535     1.04100
O109        O  0.21078115  0.08762666  0.46057055    -0.78500
C110        C  0.31303725  0.06812123  0.39431963     1.02400
Fe111      Fe  0.49814101  0.37945269  0.36926517     1.65800
Fe112      Fe  0.49893247  0.32711201  0.31725838     1.73200
Fe113      Fe  0.49662505  0.43240302  0.31736370     1.54400
O114        O  0.45287532  0.45816724  0.33973157    -0.82200
O115        O  0.04717022  0.34633741  0.29665415    -0.80500
O116        O  0.44676062  0.41771734  0.37120755    -0.84700
O117        O  0.03049865  0.43026338  0.37296810    -0.79500
O118        O  0.44777433  0.41420294  0.29616371    -0.81300
O119        O  0.03814081  0.30141615  0.33997827    -0.84100
C120        C  0.04939979  0.45527713  0.35957562     0.96700
C121        C  0.43498899  0.44827146  0.35885736     1.04100
O122        O  0.49796002  0.37968650  0.33460303    -1.13000
O123        O  0.44900789  0.30391549  0.33606555    -0.75500
O124        O  0.45828949  0.32976114  0.37172791    -0.79000
O125        O  0.04321449  0.45676265  0.33758126    -0.79700
C126        C  0.44003810  0.30531694  0.35781217     0.95600
O127        O  0.04458059  0.34258652  0.37105040    -0.77600
O128        O  0.45747634  0.34646494  0.29165866    -0.82800
C129        C  0.05775174  0.38076758  0.28766714     0.98200
C130        C  0.43939739  0.38008857  0.28629499     1.04100
O131        O  0.03986809  0.41439310  0.29323213    -0.78500
C132        C  0.05596019  0.31150396  0.35900433     1.02400
Fe133      Fe  0.49821437  0.12789084  0.11713495     1.65800
Fe134      Fe  0.05016268  0.12577162  0.06576621     1.73200
Fe135      Fe  0.44635377  0.12635016  0.06517720     1.54400
O136        O  0.42329004  0.07758266  0.08431728    -0.82200
O137        O  0.03053631  0.16953941  0.04166080    -0.80500
O138        O  0.44865728  0.08789141  0.12000324    -0.84700
O139        O  0.45927625  0.17811349  0.11813388    -0.79500
O140        O  0.46694266  0.08374724  0.04074606    -0.81300
O141        O  0.07477210  0.17340298  0.08524257    -0.84100
C142        C  0.42745612  0.18747929  0.10610081     0.96700
C143        C  0.42465514  0.06917234  0.10604434     1.04100
O144        O  0.99683975  0.12572171  0.08308267    -1.13000
O145        O  0.07651708  0.08198181  0.08776755    -0.75500
O146        O  0.03497344  0.07503206  0.11898691    -0.79000
O147        O  0.41805599  0.16876369  0.08728219    -0.79700
C148        C  0.06656549  0.06443498  0.10700240     0.95600
O149        O  0.04675878  0.16517645  0.12060197    -0.77600
O150        O  0.03213869  0.07813866  0.04423221    -0.82800
C151        C  0.99589118  0.18544511  0.03569890     0.98200
C152        C  0.50142531  0.06690906  0.03534031     1.04100
O153        O  0.46397927  0.17497322  0.04419342    -0.78500
C154        C  0.07246284  0.18254928  0.10682003     1.02400
Fe155      Fe  0.24724672  0.37396126  0.13440106     1.65800
Fe156      Fe  0.24845507  0.42793156  0.18568014     1.73200
Fe157      Fe  0.25002782  0.32262829  0.18673715     1.54400
O158        O  0.20003263  0.29838701  0.16870953    -0.82200
O159        O  0.29119177  0.40888901  0.21078003    -0.80500
O160        O  0.20754384  0.32387371  0.13280260    -0.84700
O161        O  0.29851635  0.33586844  0.13240300    -0.79500
O162        O  0.20832436  0.34306453  0.21202280    -0.81300
O163        O  0.29749985  0.45052339  0.16597005    -0.84100
C164        C  0.30923393  0.30461540  0.14447553     0.96700
C165        C  0.19027419  0.29911304  0.14716444     1.04100
O166        O  0.24860234  0.37482598  0.16897551    -1.13000
O167        O  0.20567930  0.45468773  0.16295785    -0.75500
O168        O  0.19583154  0.41205082  0.13296141    -0.79000
O169        O  0.29168799  0.29524597  0.16378078    -0.79700
C170        C  0.18691018  0.44475302  0.14414908     0.95600
O171        O  0.28675668  0.42397543  0.13060745    -0.77600
O172        O  0.19944106  0.41066677  0.20711627    -0.82800
C173        C  0.30936362  0.37527466  0.21618072     0.98200
C174        C  0.19021786  0.37677298  0.21720082     1.04100
O175        O  0.30033977  0.34090574  0.20678411    -0.78500
C176        C  0.30540229  0.44889371  0.14410997     1.02400
C177        C  0.14614391  0.27419973  0.11417984    -0.20800
C178        C  0.15819810  0.26990750  0.13785807    -0.07400
C179        C  0.14049892  0.23721274  0.15130774     0.13500
C180        C  0.11243936  0.20988115  0.14058958    -0.20900
C181        C  0.10145365  0.21366595  0.11680613    -0.07400
C182        C  0.11830936  0.24667295  0.10348136     0.13500
C183        C  0.10667119  0.25389830  0.07813343    -0.24200
H184        H  0.15888590  0.29921374  0.10368905     0.14800
H185        H  0.09955916  0.18462119  0.15085955     0.14800
C186        C  0.15101986  0.22998209  0.17680674    -0.24200
H187        H  0.12067325  0.28278612  0.07105787     0.05000
H188        H  0.07227264  0.25664417  0.07651381     0.08200
H189        H  0.11818293  0.22805228  0.06706914     0.08200
H190        H  0.14192709  0.25735855  0.18740419     0.08200
H191        H  0.18491004  0.22377953  0.17866670     0.08200
H192        H  0.13417865  0.20289504  0.18422265     0.05000
C193        C  0.34645613  0.27348533  0.11059625    -0.20800
C194        C  0.34222500  0.27701216  0.13509773    -0.07400
C195        C  0.36853988  0.25325622  0.14982214     0.13500
C196        C  0.39664172  0.22529069  0.13964550    -0.20900
C197        C  0.39929380  0.22013290  0.11518946    -0.07400
C198        C  0.37452489  0.24537477  0.10041761     0.13500
C199        C  0.37781431  0.24363582  0.07398652    -0.24200
H200        H  0.32678000  0.29202683  0.09926709     0.14800
H201        H  0.41593407  0.20640985  0.15100846     0.14800
C202        C  0.36802054  0.25747197  0.17622478    -0.24200
H203        H  0.35850054  0.26788633  0.06545774     0.05000
H204        H  0.36663278  0.21331771  0.06747340     0.08200
H205        H  0.41069397  0.24856211  0.06844070     0.08200
H206        H  0.33802662  0.24604279  0.18351237     0.08200
H207        H  0.37267311  0.29034881  0.18115921     0.08200
H208        H  0.39323884  0.23909843  0.18458080     0.05000
C209        C  0.38387170  0.50322345  0.10348164    -0.20800
C210        C  0.39570038  0.03761272  0.11550600    -0.07400
C211        C  0.40406582  0.01428438  0.13611876     0.13500
C212        C  0.37388675  0.98647242  0.14446183    -0.20900
C213        C  0.33635317  0.47847501  0.13403574    -0.07400
C214        C  0.35606850  0.47293140  0.11183029     0.13500
C215        C  0.34882716  0.43523266  0.09681818    -0.24200
H216        H  0.39908522  0.49901416  0.08660521     0.14800
H217        H  0.37986862  0.96862846  0.16024730     0.14800
C218        C  0.44477715  0.01753731  0.14919681    -0.24200
H219        H  0.36879572  0.43534890  0.08082251     0.05000
H220        H  0.31593868  0.43438215  0.09084633     0.08200
H221        H  0.35627981  0.40679084  0.10693953     0.08200
H222        H  0.44792996  0.04869089  0.15711639     0.08200
H223        H  0.47126896  0.01155809  0.13703574     0.08200
H224        H  0.44671155  0.99467983  0.16375075     0.05000
C225        C  0.11586517  0.00678893  0.09961048    -0.20800
C226        C  0.09364435  0.03086744  0.11592261    -0.07400
C227        C  0.10889827  0.53309340  0.14288319     0.13500
C228        C  0.13683081  0.50250296  0.15053252    -0.20900
C229        C  0.15413848  0.47332819  0.13497169    -0.07400
C230        C  0.14519413  0.97723792  0.10683423     0.13500
C231        C  0.16872699  0.95335865  0.08829721    -0.24200
H232        H  0.11088196  0.01173132  0.08101420     0.14800
H233        H  0.14570152  0.50186911  0.16886760     0.14800
C234        C  0.09339570  0.56458594  0.16039382    -0.24200
H235        H  0.15961589  0.96285581  0.07026724     0.05000
H236        H  0.16194849  0.91983434  0.09005636     0.08200
H237        H  0.20271851  0.95880336  0.09011334     0.08200
H238        H  0.05911078  0.56184250  0.16258424     0.08200
H239        H  0.10145551  0.59624835  0.15428427     0.08200
H240        H  0.10759857  0.56006753  0.17797535     0.05000
C241        C  0.12005534  0.34777693  0.26936437    -0.20800
C242        C  0.09212772  0.38130482  0.26989987    -0.07400
C243        C  0.09689482  0.41326317  0.25295826     0.13500
C244        C  0.12902982  0.41053866  0.23619592    -0.20900
C245        C  0.15685273  0.37690422  0.23558847    -0.07400
C246        C  0.15230283  0.34510748  0.25266652     0.13500
C247        C  0.18139843  0.30844435  0.25396372    -0.24200
H248        H  0.11666913  0.32320458  0.28215588     0.14800
H249        H  0.13207885  0.43491870  0.22321782     0.14800
C250        C  0.06781465  0.44993597  0.25172511    -0.24200
H251        H  0.17834286  0.28925041  0.23792531     0.05000
H252        H  0.17423229  0.28814540  0.26922323     0.08200
H253        H  0.21407052  0.31925217  0.25590109     0.08200
H254        H  0.03517003  0.43916816  0.24959736     0.08200
H255        H  0.07517863  0.47049018  0.23661193     0.08200
H256        H  0.07065125  0.46884552  0.26788427     0.05000
C257        C  0.36659204  0.39230445  0.27377355    -0.20800
C258        C  0.40701274  0.37927187  0.26788294    -0.07400
C259        C  0.41520137  0.36483327  0.24483070     0.13500
C260        C  0.38250968  0.36317126  0.22848399    -0.20900
C261        C  0.34208845  0.37627917  0.23439606    -0.07400
C262        C  0.33390865  0.39054534  0.25746818     0.13500
C263        C  0.29087611  0.40251092  0.26587686    -0.24200
H264        H  0.36014942  0.40282216  0.29148884     0.14800
H265        H  0.38886423  0.35244547  0.21079127     0.14800
C266        C  0.45816634  0.35240684  0.23653774    -0.24200
H267        H  0.29081990  0.43548799  0.27127382     0.05000
H268        H  0.28221697  0.38313498  0.28127224     0.08200
H269        H  0.26637826  0.39810387  0.25246420     0.08200
H270        H  0.48254062  0.35641364  0.25005927     0.08200
H271        H  0.46721717  0.37174528  0.22119803     0.08200
H272        H  0.45789452  0.31945311  0.23109856     0.05000
C273        C  0.09553160  0.28125058  0.39233674    -0.20800
C274        C  0.09025602  0.28494366  0.36794122    -0.07400
C275        C  0.11706067  0.26237810  0.35280204     0.13500
C276        C  0.14540061  0.23403676  0.36242796    -0.20900
C277        C  0.14832663  0.22788494  0.38679032    -0.07400
C278        C  0.12435057  0.25330578  0.40198805     0.13500
C279        C  0.12935515  0.25200585  0.42832458    -0.24200
H280        H  0.07605988  0.29945216  0.40401116     0.14800
H281        H  0.16456235  0.21561283  0.35070577     0.14800
C282        C  0.11707217  0.26868936  0.32654616    -0.24200
H283        H  0.11096984  0.27671992  0.43710571     0.05000
H284        H  0.16264334  0.25661534  0.43296091     0.08200
H285        H  0.11820684  0.22201984  0.43543578     0.08200
H286        H  0.12134498  0.30204040  0.32256121     0.08200
H287        H  0.08747978  0.25747292  0.31883901     0.08200
H288        H  0.14284433  0.25149677  0.31784178     0.05000
C289        C  0.36145230  0.25075737  0.39810209    -0.20800
C290        C  0.35019386  0.21692402  0.38419035    -0.07400
C291        C  0.36779109  0.21277563  0.36146447     0.13500
C292        C  0.39628766  0.24247967  0.35342769    -0.20900
C293        C  0.40803014  0.27634720  0.36736515    -0.07400
C294        C  0.38987990  0.28061815  0.39009584     0.13500
C295        C  0.39948659  0.31641709  0.40616860    -0.24200
H296        H  0.34767722  0.25392851  0.41544864     0.14800
H297        H  0.41008197  0.23863332  0.33614966     0.14800
C298        C  0.35814508  0.17638623  0.34583313    -0.24200
H299        H  0.38042928  0.31548252  0.42250661     0.05000
H300        H  0.39257571  0.34611530  0.39714777     0.08200
H301        H  0.43268355  0.31536526  0.41157747     0.08200
H302        H  0.32485421  0.17704776  0.34061065     0.08200
H303        H  0.36512905  0.14702964  0.35519884     0.08200
H304        H  0.37701775  0.17687101  0.32942614     0.05000
C305        C  0.34062248  0.02550402  0.36135225    -0.20800
C306        C  0.34004071  0.03389369  0.38557706    -0.07400
C307        C  0.36652406  0.01059376  0.40055874     0.13500
C308        C  0.39482692  0.98237722  0.39071306    -0.20900
C309        C  0.40016340  0.47448407  0.36759898    -0.07400
C310        C  0.37349640  0.49681056  0.35232775     0.13500
C311        C  0.37433776  0.49071179  0.32606245    -0.24200
H312        H  0.32569538  0.54330581  0.35001767     0.14800
H313        H  0.41608100  0.96585039  0.40215613     0.14800
C314        C  0.36498146  0.01436687  0.42695917    -0.24200
H315        H  0.34858464  0.50765328  0.31726829     0.05000
H316        H  0.37072325  0.45736818  0.32194565     0.08200
H317        H  0.40399492  0.50246912  0.31852407     0.08200
H318        H  0.33250889  0.00955463  0.43319836     0.08200
H319        H  0.37644729  0.04515438  0.43253568     0.08200
H320        H  0.38494180  0.99087624  0.43570333     0.05000
C321        C  0.08655892  0.02621227  0.35627857    -0.20800
C322        C  0.08016731  0.48346301  0.37010822    -0.07400
C323        C  0.07131762  0.50659015  0.39061410     0.13500
C324        C  0.13466041  0.00741651  0.39565940    -0.20900
C325        C  0.13769042  0.04655528  0.38533298    -0.07400
C326        C  0.11313312  0.05635165  0.36553949     0.13500
C327        C  0.11358012  0.09900533  0.35469534    -0.24200
H328        H  0.06732930  0.03395893  0.34127666     0.14800
H329        H  0.09413528  0.55264174  0.41452277     0.14800
C330        C  0.02964781  0.50383153  0.40294960    -0.24200
H331        H  0.09052485  0.10187915  0.34027430     0.05000
H332        H  0.14479658  0.10582843  0.34717557     0.08200
H333        H  0.10572558  0.12247740  0.36823435     0.08200
H334        H  0.02501998  0.47226118  0.41017156     0.08200
H335        H  0.00418784  0.51118930  0.39044728     0.08200
H336        H  0.02740363  0.52585702  0.41785342     0.05000
C337        C  0.21723808  0.99908060  0.51762154    -0.20800
C338        C  0.25281874  0.47219264  0.51766355    -0.07400
C339        C  0.28682984  0.48029695  0.50228645     0.13500
C340        C  0.28141306  0.01207050  0.48541969    -0.20900
C341        C  0.24595482  0.03765256  0.48443545    -0.07400
C342        C  0.21333363  0.03093337  0.50095950     0.13500
C343        C  0.17456898  0.05736891  0.50175033    -0.24200
H344        H  0.19226808  0.99429991  0.53022696     0.14800
H345        H  0.30996177  0.51856953  0.47436251     0.14800
C346        C  0.32619206  0.45461684  0.50224890    -0.24200
H347        H  0.15359489  0.04862345  0.51652777     0.05000
H348        H  0.15657344  0.05364972  0.48528804     0.08200
H349        H  0.18327138  0.09023529  0.50418852     0.08200
H350        H  0.31842205  0.42160302  0.49932595     0.08200
H351        H  0.34284292  0.45828591  0.51916497     0.08200
H352        H  0.34812713  0.46417003  0.48808942     0.05000
C353        C  0.22066416  0.25657896  0.51890605    -0.20800
C354        C  0.25235647  0.28632542  0.51733984    -0.07400
C355        C  0.28104382  0.28476485  0.49838513     0.13500
C356        C  0.27769369  0.25288762  0.48186790    -0.20900
C357        C  0.24602687  0.22312184  0.48352383    -0.07400
C358        C  0.21704185  0.22501239  0.50228267     0.13500
C359        C  0.18319397  0.19313894  0.50546009    -0.24200
H360        H  0.19862381  0.25792163  0.53336909     0.14800
H361        H  0.29960164  0.25151262  0.46731413     0.14800
C362        C  0.31400462  0.31742740  0.49477735    -0.24200
H363        H  0.16508573  0.19817507  0.52189205     0.05000
H364        H  0.19738768  0.16190056  0.50640845     0.08200
H365        H  0.16093857  0.19464969  0.49061589     0.08200
H366        H  0.33678743  0.31658648  0.50937821     0.11400
H367        H  0.29907688  0.34837666  0.49387530     0.08200
H368        H  0.33167246  0.31265398  0.47817250     0.05000
C369        C  0.14729506  0.28369622  0.64151590    -0.20800
C370        C  0.15178122  0.28617621  0.61696494    -0.07400
C371        C  0.12851558  0.25861928  0.60281370     0.13500
C372        C  0.10060652  0.23087528  0.61352904    -0.20900
C373        C  0.09481040  0.22950755  0.63805785    -0.07400
C374        C  0.11933886  0.25601416  0.65226534     0.13500
C375        C  0.11687008  0.25562615  0.67874719    -0.24200
H376        H  0.16516189  0.30442070  0.65251548     0.14800
H377        H  0.08248480  0.21056314  0.60242397     0.14800
C378        C  0.13326289  0.25730855  0.57645743    -0.24200
H379        H  0.14013895  0.27668746  0.68676481     0.05000
H380        H  0.12319532  0.22396967  0.68546426     0.08200
H381        H  0.08561950  0.26622069  0.68465762     0.08200
H382        H  0.16652007  0.25224274  0.57181318     0.08200
H383        H  0.12192613  0.28658765  0.56853317     0.08200
H384        H  0.11494442  0.23177674  0.56854654     0.05000
C385        C  0.34981719  0.27061445  0.63797609    -0.20800
C386        C  0.35581550  0.28518358  0.61483593    -0.07400
C387        C  0.38979565  0.26904915  0.60150583     0.13500
C388        C  0.41704783  0.24060236  0.61199679    -0.20900
C389        C  0.41197280  0.22791656  0.63537958    -0.07400
C390        C  0.37742355  0.24239392  0.64840250     0.13500
C391        C  0.36880396  0.22739076  0.67303915    -0.24200
H392        H  0.32370268  0.28185547  0.64827934     0.14800
H393        H  0.44349757  0.22905733  0.60203659     0.14800
C394        C  0.39852860  0.28148315  0.57637721    -0.24200
H395        H  0.33897712  0.23988437  0.68005220     0.05000
H396        H  0.39401562  0.23740671  0.68502373     0.08200
H397        H  0.36664093  0.19311809  0.67313007     0.08200
H398        H  0.40586720  0.31499189  0.57540485     0.08200
H399        H  0.37119210  0.27419520  0.56522038     0.08200
H400        H  0.42573272  0.26467273  0.56889994     0.05000
C401        C  0.40377061  0.02863890  0.61362181    -0.20800
C402        C  0.41379391  0.02615979  0.63768253    -0.07400
C403        C  0.38280706  0.50563415  0.65008454     0.13500
C404        C  0.35527522  0.47750350  0.63965792    -0.20900
C405        C  0.35481088  0.47075330  0.61524580    -0.07400
C406        C  0.37595335  0.00088876  0.60303592     0.13500
C407        C  0.36674104  0.00582585  0.57720351    -0.24200
H408        H  0.41841170  0.05204442  0.60273290     0.14800
H409        H  0.33452311  0.45988003  0.65091631     0.14800
C410        C  0.38048808  0.51140613  0.67636258    -0.24200
H411        H  0.38210406  0.03364306  0.56965045     0.05000
H412        H  0.33261212  0.00917612  0.57452924     0.08200
H413        H  0.37851194  0.97865851  0.56730907     0.08200
H414        H  0.37572770  0.54462124  0.68054440     0.08200
H415        H  0.40947427  0.49994282  0.68473467     0.08200
H416        H  0.35414665  0.49391417  0.68429950     0.05000
C417        C  0.09512143  0.01911159  0.61386805    -0.20800
C418        C  0.09657236  0.02780837  0.63797043    -0.07400
C419        C  0.12789636  0.00914193  0.65182200     0.13500
C420        C  0.15009936  0.47470334  0.64091266    -0.20900
C421        C  0.15357145  0.47068430  0.61640385    -0.07400
C422        C  0.12965605  0.49719057  0.60182386     0.13500
C423        C  0.13299971  0.49655067  0.57536885    -0.24200
H424        H  0.07127421  0.03368257  0.60321781     0.14800
H425        H  0.16848228  0.45478787  0.65218927     0.14800
C426        C  0.13309463  0.01950828  0.67745034    -0.24200
H427        H  0.11429880  0.52157133  0.56712044     0.05000
H428        H  0.12108104  0.46681430  0.56841319     0.08200
H429        H  0.16598931  0.50106660  0.56995659     0.08200
H430        H  0.10554408  0.00898616  0.68767013     0.08200
H431        H  0.13697950  0.05342118  0.67944276     0.08200
H432        H  0.16098291  0.00423835  0.68509710     0.05000
C433        C  0.12148099  0.14924427  0.77542346    -0.20800
C434        C  0.15915763  0.12890617  0.77045422    -0.07400
C435        C  0.16428176  0.10849507  0.74864521     0.13500
C436        C  0.13116990  0.10822187  0.73269903    -0.20900
C437        C  0.09363313  0.12876858  0.73757441    -0.07400
C438        C  0.08836512  0.14899634  0.75941711     0.13500
C439        C  0.04794122  0.16895750  0.76698711    -0.24200
H440        H  0.11745016  0.16455012  0.79221649     0.14800
H441        H  0.13519214  0.09288240  0.71594533     0.14800
C442        C  0.20458282  0.08838573  0.74094235    -0.24200
H443        H  0.05295776  0.20255475  0.76978273     0.05000
H444        H  0.03730087  0.15484177  0.78377337     0.08200
H445        H  0.02236853  0.16500615  0.75419831     0.08200
H446        H  0.23058232  0.09288087  0.75338557     0.08200
H447        H  0.21474207  0.10197969  0.72392536     0.08200
H448        H  0.19956395  0.05468894  0.73852361     0.05000
C449        C  0.37325127  0.15049931  0.73111463    -0.20800
C450        C  0.41058980  0.12963849  0.73601883    -0.07400
C451        C  0.41525816  0.10934196  0.75790472     0.13500
C452        C  0.38170125  0.10885682  0.77378510    -0.20900
C453        C  0.34413696  0.12929910  0.76878492    -0.07400
C454        C  0.33973264  0.15024156  0.74703598     0.13500
C455        C  0.29983316  0.17103536  0.73941841    -0.24200
H456        H  0.36974288  0.16616157  0.71438691     0.14800
H457        H  0.38538476  0.09340845  0.79058516     0.14800
C458        C  0.45562735  0.08968261  0.76568613    -0.24200
H459        H  0.30532403  0.20472280  0.73717576     0.05000
H460        H  0.27360351  0.16657210  0.75185106     0.08200
H461        H  0.28977803  0.15797614  0.72232951     0.08200
H462        H  0.46562134  0.10378444  0.78251920     0.08200
H463        H  0.48158484  0.09402916  0.75304138     0.08200
H464        H  0.45084353  0.05601885  0.76845839     0.05000
C465        C  0.02125438  0.46417964  0.00510122    -0.20800
C466        C  0.49435349  0.47047852  0.98419265    -0.07400
C467        C  0.46870953  0.50602171  0.98222248     0.13500
C468        C  0.46927129  0.03286420  0.00082765    -0.20900
C469        C  0.50116494  0.03302541  0.01769761    -0.07400
C470        C  0.02957208  0.00098725  0.01763462     0.13500
C471        C  0.06577666  0.00040095  0.03448447    -0.24200
H472        H  0.03954806  0.43616137  0.00701821     0.14800
H473        H  0.44648238  0.05765676  0.00084023     0.14800
C474        C  0.43999362  0.51263580  0.96161721    -0.24200
H475        H  0.08603286  0.97286466  0.03192756     0.05000
H476        H  0.05388923  0.99951168  0.05281929     0.08200
H477        H  0.08564665  0.02809371  0.03177083     0.08200
H478        H  0.41518903  0.48873169  0.96160000     0.08200
H479        H  0.45802203  0.51112876  0.94494187     0.08200
H480        H  0.42433196  0.54327540  0.96234273     0.05000
C481        C  0.03306309  0.24213940  0.01488426    -0.20800
C482        C  0.99605343  0.21952631  0.01804378    -0.07400
C483        C  0.46298230  0.22994315  0.00344747     0.13500
C484        C  0.46561630  0.26200591  0.98684246    -0.20900
C485        C  0.50213089  0.28539635  0.98388852    -0.07400
C486        C  0.03623290  0.27403420  0.99822947     0.13500
C487        C  0.07688005  0.29737140  0.99649648    -0.24200
H488        H  0.05989754  0.23500156  0.02569552     0.14800
H489        H  0.43888451  0.26858324  0.97583845     0.14800
C490        C  0.42281513  0.20575791  0.00500191    -0.24200
H491        H  0.09965661  0.28694663  0.00992269     0.05000
H492        H  0.07128329  0.33090941  0.99928463     0.08200
H493        H  0.09148544  0.29220409  0.97903991     0.08200
H494        H  0.40796113  0.21046104  0.02243528     0.08200
H495        H  0.42911484  0.17236861  0.00211344     0.08200
H496        H  0.39992567  0.21586231  0.99156252     0.05000
C497        C  0.13814977  0.25300296  0.85406486    -0.20800
C498        C  0.16157199  0.22955013  0.87006818    -0.07400
C499        C  0.15568657  0.23607169  0.89450717     0.13500
C500        C  0.12651762  0.26557881  0.90206243    -0.20900
C501        C  0.10332346  0.28913141  0.88601329    -0.07400
C502        C  0.10949295  0.28290065  0.86161127     0.13500
C503        C  0.08770948  0.30875985  0.84326308    -0.24200
H504        H  0.14272040  0.24834204  0.83537988     0.14800
H505        H  0.12203122  0.27055080  0.92073199     0.14800
C506        C  0.18094445  0.21359273  0.91285499    -0.24200
H507        H  0.09881078  0.30145144  0.82523393     0.05000
H508        H  0.09385389  0.34208515  0.84643899     0.08200
H509        H  0.05365685  0.30274475  0.84371611     0.08200
H510        H  0.21473475  0.21889813  0.90972291     0.08200
H511        H  0.17402028  0.17998747  0.91233352     0.08200
H512        H  0.17358990  0.22452955  0.93088888     0.05000
C513        C  0.40120034  0.25036691  0.89261702    -0.20800
C514        C  0.40107982  0.29074353  0.88368512    -0.07400
C515        C  0.37313014  0.30165549  0.86559929     0.13500
C516        C  0.34548082  0.27185823  0.85706667    -0.20900
C517        C  0.34481738  0.23151401  0.86625901    -0.07400
C518        C  0.37355374  0.22040960  0.88407556     0.13500
C519        C  0.37604665  0.17708517  0.89388128    -0.24200
H520        H  0.42303936  0.24232087  0.90638413     0.14800
H521        H  0.32334415  0.28054554  0.84358278     0.14800
C522        C  0.37107005  0.34511007  0.85594816    -0.24200
H523        H  0.40260415  0.17348370  0.90618668     0.05000
H524        H  0.38049289  0.15459362  0.87936604     0.08200
H525        H  0.34719855  0.16954915  0.90381759     0.08200
H526        H  0.40092805  0.35299201  0.84712444     0.08200
H527        H  0.36501991  0.36734516  0.87041582     0.08200
H528        H  0.34579542  0.34867001  0.84281258     0.05000
C529        C  0.37216875  0.50939861  0.85147930    -0.20800
C530        C  0.34597170  0.02983103  0.86854346    -0.07400
C531        C  0.34763014  0.01871691  0.89258694     0.13500
C532        C  0.37680816  0.98926087  0.89995103    -0.20900
C533        C  0.40312384  0.47034057  0.88363634    -0.07400
C534        C  0.40147350  0.48032451  0.85934416     0.13500
C535        C  0.42930160  0.45982377  0.84136746    -0.24200
H536        H  0.37042812  0.51673500  0.83291003     0.14800
H537        H  0.37790265  0.98071356  0.91836761     0.14800
C538        C  0.31747656  0.03599334  0.91048346    -0.24200
H539        H  0.42182750  0.46993623  0.82320399     0.05000
H540        H  0.42533441  0.42576398  0.84217132     0.08200
H541        H  0.46236337  0.46804714  0.84464045     0.08200
H542        H  0.28491072  0.02990643  0.90488593     0.08200
H543        H  0.32241982  0.06975753  0.91249291     0.08200
H544        H  0.32174731  0.02165613  0.92806097     0.05000
C545        C  0.10254290  0.98287329  0.86671597    -0.20800
C546        C  0.10604576  0.47014369  0.88854108    -0.07400
C547        C  0.13173477  0.49558404  0.90265677     0.13500
C548        C  0.15964380  0.52303336  0.89174700    -0.20900
C549        C  0.16279018  0.02795232  0.86979955    -0.07400
C550        C  0.13004998  0.01118200  0.85628562     0.13500
C551        C  0.12306607  0.02342370  0.83100690    -0.24200
H552        H  0.07796920  0.96989825  0.85601659     0.14800
H553        H  0.17946811  0.54190732  0.90274080     0.14800
C554        C  0.13039418  0.49448118  0.92915424    -0.24200
H555        H  0.09398078  0.00977368  0.82388122     0.05000
H556        H  0.14920508  0.01229379  0.81986290     0.08200
H557        H  0.12034286  0.05758630  0.82958530     0.08200
H558        H  0.14040826  0.46362485  0.93560396     0.08200
H559        H  0.09834140  0.50150532  0.93545363     0.08200
H560        H  0.15166072  0.51766830  0.93704937     0.05000
Fe561      Fe  0.00488677  0.87938448  0.88499781     1.65800
Fe562      Fe  0.44811337  0.87604166  0.93461402     1.73200
Fe563      Fe  0.05390847  0.87626500  0.93763733     1.54400
O564        O  0.08415905  0.83646283  0.91447598    -0.82200
O565        O  0.46316870  0.92643658  0.95496908    -0.80500
O566        O  0.04283860  0.82869083  0.88342181    -0.84700
O567        O  0.05544775  0.91870643  0.88425181    -0.79500
O568        O  0.03620314  0.82529802  0.95684990    -0.81300
O569        O  0.42028896  0.91650948  0.91093590    -0.84100
C570        C  0.07805029  0.93721031  0.89911550     0.96700
C571        C  0.07498017  0.81917221  0.89509266     1.04100
O572        O  0.50191723  0.87754568  0.91836298    -1.13000
O573        O  0.42878556  0.82561216  0.91552988    -0.75500
O574        O  0.45323166  0.84109478  0.87991310    -0.79000
O575        O  0.07726215  0.92762994  0.92066896    -0.79700
C576        C  0.42970329  0.82033516  0.89346857     0.95600
O577        O  0.46654361  0.93086956  0.88289364    -0.77600
O578        O  0.46831149  0.83535007  0.96052541    -0.82800
C579        C  0.49648246  0.93556785  0.96571125     0.98200
C580        C  0.50226876  0.81684950  0.96532516     1.04100
O581        O  0.03002711  0.91603260  0.96278256    -0.78500
C582        C  0.43204212  0.93729630  0.89307985     1.02400
Fe583      Fe  0.25383746  0.62852979  0.86823516     1.65800
Fe584      Fe  0.25202883  0.68222763  0.81672350     1.73200
Fe585      Fe  0.25284125  0.57669335  0.81624683     1.54400
O586        O  0.29556753  0.54856317  0.83835816    -0.82200
O587        O  0.20181813  0.66538876  0.79642029    -0.80500
O588        O  0.30404777  0.58969322  0.86925999    -0.84700
O589        O  0.21313237  0.57947919  0.87105155    -0.79500
O590        O  0.30153882  0.59458182  0.79508618    -0.81300
O591        O  0.21087211  0.70931333  0.84021099    -0.84100
C592        C  0.19506407  0.55469608  0.85718105     0.96700
C593        C  0.31318812  0.55767575  0.85761276     1.04100
O594        O  0.25286871  0.62913658  0.83368323    -1.13000
O595        O  0.30245031  0.70454394  0.83499355    -0.75500
O596        O  0.29492718  0.67732807  0.87062870    -0.79000
O597        O  0.20404006  0.55322324  0.83552461    -0.79700
C598        C  0.31270538  0.70192862  0.85644201     0.95600
O599        O  0.20355383  0.66730232  0.87087621    -0.77600
O600        O  0.29302845  0.66264787  0.79095256    -0.82800
C601        C  0.19268788  0.63147589  0.78652478     0.98200
C602        C  0.31033352  0.62876154  0.78532607     1.04100
O603        O  0.21014849  0.59742564  0.79175050    -0.78500
C604        C  0.19366602  0.69956196  0.85960133     1.02400
Fe605      Fe  0.25464163  0.87879379  0.61810927     1.65800
Fe606      Fe  0.20125811  0.87855626  0.56631753     1.73200
Fe607      Fe  0.30802707  0.87967169  0.56584049     1.54400
O608        O  0.33333254  0.92605546  0.58605256    -0.82200
O609        O  0.22096083  0.83484727  0.54243000    -0.80500
O610        O  0.30129978  0.92223009  0.62062145    -0.84700
O611        O  0.29691969  0.83105799  0.61957642    -0.79500
O612        O  0.28823401  0.92478784  0.54274365    -0.81300
O613        O  0.17685027  0.83083891  0.58616517    -0.84100
C614        C  0.32646227  0.81848390  0.60651695     0.96700
C615        C  0.32859846  0.93782416  0.60709851     1.04100
O616        O  0.25466199  0.87905339  0.58340986    -1.13000
O617        O  0.17433164  0.92211884  0.58809267    -0.75500
O618        O  0.21212698  0.92643982  0.62053886    -0.79000
O619        O  0.33446362  0.83452724  0.58666779    -0.79700
C620        C  0.18174462  0.93815586  0.60794513     0.95600
O621        O  0.20796717  0.83531989  0.62085644    -0.77600
O622        O  0.21897942  0.92611081  0.54421458    -0.82800
C623        C  0.25563479  0.82028375  0.53549257     0.98200
C624        C  0.25346883  0.93944465  0.53619933     1.04100
O625        O  0.29010208  0.83327429  0.54332354    -0.78500
C626        C  0.18127710  0.81928263  0.60728752     1.02400
Fe627      Fe  0.00418389  0.62820018  0.63496129     1.65800
Fe628      Fe  0.00326105  0.57482674  0.68705862     1.73200
Fe629      Fe  0.00127536  0.68064437  0.68701430     1.54400
O630        O  0.04833714  0.70654422  0.66724971    -0.82200
O631        O  0.45749149  0.59481985  0.71008277    -0.80500
O632        O  0.04796559  0.67489016  0.63280947    -0.84700
O633        O  0.45681016  0.67061163  0.63170216    -0.79500
O634        O  0.04565775  0.66254971  0.71088269    -0.81300
O635        O  0.45594932  0.55079262  0.66641208    -0.84100
C636        C  0.44406924  0.70017662  0.64445610     0.96700
C637        C  0.06203089  0.70242564  0.64650379     1.04100
O638        O  0.00298164  0.62784314  0.66970257    -1.13000
O639        O  0.04838365  0.54893306  0.66589215    -0.75500
O640        O  0.05245641  0.58626455  0.63317385    -0.79000
O641        O  0.45947450  0.70746363  0.66444009    -0.79700
C642        C  0.06449472  0.55643872  0.64599310     0.95600
O643        O  0.46021530  0.58239336  0.63183710    -0.77600
O644        O  0.04993956  0.59372989  0.70951001    -0.82800
C645        C  0.44198634  0.62920341  0.71629601     0.98200
C646        C  0.06108115  0.62849533  0.71768601     1.04100
O647        O  0.45378358  0.66358749  0.70791239    -0.78500
C648        C  0.44405296  0.55558326  0.64538321     1.02400
Fe649      Fe  0.24432011  0.62694421  0.38385438     1.65800
Fe650      Fe  0.29948650  0.62942135  0.43493738     1.73200
Fe651      Fe  0.19299504  0.63075458  0.43633852     1.54400
O652        O  0.16620901  0.67377118  0.41404279    -0.82200
O653        O  0.28206386  0.58219669  0.45718787    -0.80500
O654        O  0.20558140  0.67773422  0.38185224    -0.84700
O655        O  0.19462128  0.58722802  0.38257960    -0.79500
O656        O  0.21249173  0.67942226  0.45674831    -0.81300
O657        O  0.32531391  0.58516770  0.41306108    -0.84100
C658        C  0.16925955  0.57090456  0.39687286     0.96700
C659        C  0.17539570  0.69036755  0.39446498     1.04100
O660        O  0.24559364  0.62901088  0.41842328    -1.13000
O661        O  0.32245413  0.67699319  0.41457218    -0.75500
O662        O  0.29384015  0.66634452  0.37957635    -0.79000
O663        O  0.16694965  0.58203749  0.41818249    -0.79700
C664        C  0.31937060  0.68467129  0.39281484     0.95600
O665        O  0.28300641  0.57599164  0.38264353    -0.77600
O666        O  0.28129474  0.67334601  0.45918698    -0.82800
C667        C  0.24765652  0.57143256  0.46646999     0.98200
C668        C  0.24721876  0.69028712  0.46525461     1.04100
O669        O  0.21333624  0.58819078  0.46083634    -0.78500
C670        C  0.31473496  0.56587483  0.39463503     1.02400
Fe671      Fe  0.49242628  0.87827063  0.36789574     1.65800
Fe672      Fe  0.49390981  0.82738569  0.31532329     1.73200
Fe673      Fe  0.49432329  0.93321422  0.31651651     1.54400
O674        O  0.44868588  0.95858237  0.33786658    -0.82200
O675        O  0.04708908  0.84864183  0.29331840    -0.80500
O676        O  0.44302364  0.91895713  0.36977056    -0.84700
O677        O  0.03713716  0.93035264  0.36978595    -0.79500
O678        O  0.44787669  0.91642360  0.29349784    -0.81300
O679        O  0.04432316  0.80330872  0.33689105    -0.84100
C680        C  0.05316380  0.95713580  0.35634272     0.96700
C681        C  0.43130863  0.94933664  0.35725382     1.04100
O682        O  0.49357446  0.87965832  0.33320237    -1.13000
O683        O  0.44482234  0.80306823  0.33417438    -0.75500
O684        O  0.45016676  0.83084012  0.36961739    -0.79000
O685        O  0.04306374  0.96045744  0.33488489    -0.79700
C686        C  0.43351327  0.80579568  0.35547881     0.95600
O687        O  0.04915461  0.84242072  0.36884996    -0.77600
O688        O  0.45124692  0.84780253  0.29089764    -0.82800
C689        C  0.05718936  0.88344334  0.28463306     0.98200
C690        C  0.43670381  0.88244568  0.28440796     1.04100
O691        O  0.04018081  0.91703950  0.29090063    -0.78500
C692        C  0.06117055  0.81210522  0.35637028     1.02400
Fe693      Fe  0.49753296  0.62646259  0.11772404     1.65800
Fe694      Fe  0.05194249  0.62531092  0.06654925     1.73200
Fe695      Fe  0.44440279  0.62711235  0.06603052     1.54400
O696        O  0.42046933  0.57807326  0.08498966    -0.82200
O697        O  0.03150646  0.66720311  0.04142019    -0.80500
O698        O  0.44725291  0.58723106  0.12051583    -0.84700
O699        O  0.45913968  0.67722963  0.11948001    -0.79500
O700        O  0.46452140  0.58493509  0.04120180    -0.81300
O701        O  0.07617503  0.67465178  0.08485914    -0.84100
C702        C  0.42742415  0.68746120  0.10755233     0.96700
C703        C  0.42190021  0.56978264  0.10674544     1.04100
O704        O  0.99860998  0.62633419  0.08390731    -1.13000
O705        O  0.07922278  0.58327151  0.08942712    -0.75500
O706        O  0.03897648  0.57940372  0.12134804    -0.79000
O707        O  0.41732325  0.66941233  0.08863128    -0.79700
C708        C  0.07022238  0.56773176  0.10934958     0.95600
O709        O  0.04674795  0.66997891  0.12012505    -0.77600
O710        O  0.03424566  0.57574475  0.04630502    -0.82800
C711        C  0.99691463  0.68360898  0.03570036     0.98200
C712        C  0.49870404  0.56702072  0.03626322     1.04100
O713        O  0.46207147  0.67611853  0.04515092    -0.78500
C714        C  0.07286969  0.68603109  0.10606576     1.02400
Fe715      Fe  0.24942902  0.87621385  0.13232789     1.65800
Fe716      Fe  0.24618851  0.93247487  0.18293939     1.73200
Fe717      Fe  0.24878194  0.82752914  0.18516845     1.54400
O718        O  0.19914638  0.80369290  0.16690753    -0.82200
O719        O  0.28766542  0.91477476  0.20876618    -0.80500
O720        O  0.21020651  0.82583179  0.13056800    -0.84700
O721        O  0.30127218  0.83862775  0.13206166    -0.79500
O722        O  0.20684597  0.84882139  0.20978870    -0.81300
O723        O  0.29603945  0.95508300  0.16413458    -0.84100
C724        C  0.31019861  0.80710163  0.14437658     0.96700
C725        C  0.19100355  0.80297238  0.14516000     1.04100
O726        O  0.24819980  0.87882955  0.16682798    -1.13000
O727        O  0.20447575  0.95711243  0.15923926    -0.75500
O728        O  0.19779261  0.91346935  0.12930828    -0.79000
O729        O  0.29073608  0.79844241  0.16316068    -0.79700
C730        C  0.18700179  0.94577205  0.14033306     0.95600
O731        O  0.28841796  0.92633979  0.12890039    -0.77600
O732        O  0.19607532  0.91577065  0.20356287    -0.82800
C733        C  0.30663574  0.88176618  0.21437763     0.98200
C734        C  0.18782975  0.88226264  0.21420466     1.04100
O735        O  0.29836017  0.84700139  0.20517738    -0.78500
C736        C  0.30514761  0.95233532  0.14252474     1.02400
C737        C  0.14816378  0.77673210  0.11197520    -0.20800
C738        C  0.15854838  0.77423830  0.13599404    -0.07400
C739        C  0.13866147  0.74374168  0.15008918     0.13500
C740        C  0.11065728  0.71622506  0.13962749    -0.20900
C741        C  0.10151465  0.71786261  0.11553260    -0.07400
C742        C  0.12008675  0.74909019  0.10156169     0.13500
C743        C  0.11005959  0.75428214  0.07584755    -0.24200
H744        H  0.16241980  0.80030499  0.10103799     0.14800
H745        H  0.09639968  0.69241519  0.15041558     0.14800
C746        C  0.14667771  0.73900128  0.17607233    -0.24200
H747        H  0.12532636  0.78206920  0.06819179     0.05000
H748        H  0.07586605  0.75788061  0.07357212     0.08200
H749        H  0.12130401  0.72711508  0.06576519     0.08200
H750        H  0.13780357  0.76783620  0.18540949     0.08200
H751        H  0.18005997  0.73170029  0.17912625     0.08200
H752        H  0.12811185  0.71347983  0.18395965     0.05000
C753        C  0.35288011  0.77860983  0.11173289    -0.20800
C754        C  0.34317516  0.77838464  0.13585790    -0.07400
C755        C  0.36388775  0.74973744  0.15076529     0.13500
C756        C  0.39220397  0.72151661  0.14094951    -0.20900
C757        C  0.40006295  0.72050127  0.11671655    -0.07400
C758        C  0.38078387  0.74997152  0.10194354     0.13500
C759        C  0.38992023  0.75200307  0.07594179    -0.24200
H760        H  0.33756090  0.80056443  0.10021818     0.14800
H761        H  0.40731251  0.69900708  0.15223095     0.14800
C762        C  0.35688473  0.74841270  0.17699442    -0.24200
H763        H  0.37439193  0.77889516  0.06750426     0.05000
H764        H  0.37834752  0.72374332  0.06710235     0.08200
H765        H  0.42403499  0.75509104  0.07297856     0.08200
H766        H  0.32455805  0.73832320  0.18099955     0.08200
H767        H  0.36273889  0.77939730  0.18465851     0.08200
H768        H  0.37816000  0.72613380  0.18577412     0.05000
C769        C  0.35777695  0.03175949  0.10372197    -0.20800
C770        C  0.39272735  0.53878157  0.11658861    -0.07400
C771        C  0.37289217  0.54454455  0.13859015     0.13500
C772        C  0.34530883  0.51433335  0.14699161    -0.20900
C773        C  0.33607206  0.98103991  0.13265831    -0.07400
C774        C  0.32782427  0.00392169  0.11204106     0.13500
C775        C  0.28681944  0.00051720  0.09927349    -0.24200
H776        H  0.35100194  0.04983378  0.08813435     0.14800
H777        H  0.32995478  0.51932995  0.16374145     0.14800
C778        C  0.37909824  0.58323843  0.15296373    -0.24200
H779        H  0.28483032  0.02263352  0.08436144     0.05000
H780        H  0.26064917  0.00731959  0.11151991     0.08200
H781        H  0.28315516  0.96894028  0.09199735     0.08200
H782        H  0.37163635  0.61096775  0.14221296     0.08200
H783        H  0.41176630  0.58503964  0.15920891     0.08200
H784        H  0.35860987  0.58376803  0.16874224     0.05000
C785        C  0.11411819  0.50532785  0.10337301    -0.20800
C786        C  0.09756868  0.53474847  0.11890416    -0.07400
C787        C  0.10005583  0.02425253  0.14025526     0.13500
C788        C  0.12945610  0.99490080  0.14743670    -0.20900
C789        C  0.15287348  0.97197111  0.13114221    -0.07400
C790        C  0.14191666  0.47450077  0.11099654     0.13500
C791        C  0.15860212  0.44449709  0.09299192    -0.24200
H792        H  0.10536785  0.50664843  0.08505142     0.14800
H793        H  0.13487918  0.99046079  0.16605668     0.14800
C794        C  0.07791583  0.04923174  0.15890672    -0.24200
H795        H  0.14629597  0.45102064  0.07514998     0.05000
H796        H  0.14912156  0.41249995  0.09767624     0.08200
H797        H  0.19312635  0.44669610  0.09204241     0.08200
H798        H  0.04389484  0.04302441  0.15838005     0.08200
H799        H  0.08391363  0.08271725  0.15611598     0.08200
H800        H  0.08879192  0.04122024  0.17684971     0.05000
C801        C  0.12378988  0.85689579  0.26880800    -0.20800
C802        C  0.09046509  0.88463884  0.26657499    -0.07400
C803        C  0.08917281  0.91164784  0.24695248     0.13500
C804        C  0.12142081  0.91009390  0.23023821    -0.20900
C805        C  0.15474091  0.88213674  0.23244695    -0.07400
C806        C  0.15599910  0.85527542  0.25216819     0.13500
C807        C  0.19154376  0.82554583  0.25637070    -0.24200
H808        H  0.12478402  0.83638816  0.28387564     0.14800
H809        H  0.12027381  0.93053073  0.21511216     0.14800
C810        C  0.05332634  0.94106548  0.24294820    -0.24200
H811        H  0.19199111  0.80135256  0.24258121     0.05000
H812        H  0.18851293  0.80942302  0.27354730     0.08200
H813        H  0.22161474  0.84256665  0.25640433     0.08200
H814        H  0.02347198  0.92368129  0.24271876     0.08200
H815        H  0.05633329  0.95770761  0.22593031     0.08200
H816        H  0.05240782  0.96473721  0.25701696     0.05000
C817        C  0.37023345  0.90914827  0.26852965    -0.20800
C818        C  0.40500148  0.88325789  0.26564055    -0.07400
C819        C  0.40814889  0.85848528  0.24520209     0.13500
C820        C  0.37523046  0.85838873  0.22910267    -0.20900
C821        C  0.34012721  0.88378028  0.23215255    -0.07400
C822        C  0.33777648  0.90988057  0.25208038     0.13500
C823        C  0.30061150  0.93737223  0.25673855    -0.24200
H824        H  0.36808957  0.92838163  0.28399999     0.14800
H825        H  0.37762588  0.83909565  0.21359206     0.14800
C826        C  0.44627778  0.83327513  0.23901401    -0.24200
H827        H  0.29837777  0.96158387  0.24296009     0.05000
H828        H  0.30306454  0.95341648  0.27391300     0.08200
H829        H  0.27162755  0.91858880  0.25702045     0.08200
H830        H  0.47294497  0.83842873  0.25091177     0.08200
H831        H  0.45719475  0.84193740  0.22112604     0.08200
H832        H  0.43821245  0.79988573  0.23910426     0.05000
C833        C  0.09830405  0.78036673  0.39010004    -0.20800
C834        C  0.09436994  0.78439823  0.36562424    -0.07400
C835        C  0.12036236  0.76013216  0.35087974     0.13500
C836        C  0.14720532  0.73083307  0.36096989    -0.20900
C837        C  0.14901437  0.72475596  0.38539743    -0.07400
C838        C  0.12512741  0.75099745  0.40020830     0.13500
C839        C  0.12777155  0.74889319  0.42664744    -0.24200
H840        H  0.07904748  0.79929922  0.40150054     0.14800
H841        H  0.16604226  0.71158195  0.34952173     0.14800
C842        C  0.12082736  0.76516055  0.32453292    -0.24200
H843        H  0.10949001  0.77397069  0.43515850     0.05000
H844        H  0.16072686  0.75223294  0.43226276     0.08200
H845        H  0.11493479  0.71912009  0.43313448     0.08200
H846        H  0.12662761  0.79804887  0.31999904     0.08200
H847        H  0.09079190  0.75485142  0.31695148     0.08200
H848        H  0.14581506  0.74639200  0.31616287     0.05000
C849        C  0.34999148  0.75462704  0.39345534    -0.20800
C850        C  0.34666286  0.71621716  0.38232904    -0.07400
C851        C  0.36966745  0.70841019  0.36159785     0.13500
C852        C  0.39666105  0.73886735  0.35297711    -0.20900
C853        C  0.40122825  0.77701633  0.36444841    -0.07400
C854        C  0.37659571  0.78543844  0.38468439     0.13500
C855        C  0.37721083  0.82678469  0.39694775    -0.24200
H856        H  0.33151572  0.76052969  0.40910180     0.14800
H857        H  0.41529394  0.73221911  0.33750675     0.14800
C858        C  0.36737101  0.66741042  0.34904173    -0.24200
H859        H  0.35314696  0.82862782  0.41100677     0.05000
H860        H  0.37077176  0.85190889  0.38412539     0.08200
H861        H  0.40786636  0.83190481  0.40540470     0.08200
H862        H  0.33551491  0.66253939  0.34204446     0.08200
H863        H  0.37537307  0.64192037  0.36133631     0.08200
H864        H  0.38939567  0.66595069  0.33395230     0.05000
C865        C  0.34478590  0.52505109  0.36181145    -0.20800
C866        C  0.34165274  0.53155718  0.38613183    -0.07400
C867        C  0.36543740  0.50631974  0.40146250     0.13500
C868        C  0.39438648  0.47827515  0.39197651    -0.20900
C869        C  0.39745066  0.97629015  0.36636692    -0.07400
C870        C  0.36874776  0.99693335  0.35157206     0.13500
C871        C  0.36657419  0.98818807  0.32561650    -0.24200
H872        H  0.31974659  0.04226466  0.34981457     0.14800
H873        H  0.41367025  0.46021396  0.40376460     0.14800
C874        C  0.36002253  0.50790896  0.42778130    -0.24200
H875        H  0.33997792  0.00443565  0.31720215     0.05000
H876        H  0.36225216  0.95449068  0.32289554     0.08200
H877        H  0.39545072  0.99871496  0.31665280     0.08200
H878        H  0.32665896  0.50324064  0.43236241     0.08200
H879        H  0.37094381  0.53800400  0.43472713     0.08200
H880        H  0.37829220  0.48333817  0.43673958     0.05000
C881        C  0.11921453  0.48718118  0.35928714    -0.20800
C882        C  0.08354952  0.98666203  0.36642196    -0.07400
C883        C  0.10812174  0.97714746  0.38646413     0.13500
C884        C  0.10145301  0.53400786  0.39923255    -0.20900
C885        C  0.14027876  0.53879147  0.38800578    -0.07400
C886        C  0.14964017  0.51405608  0.36805468     0.13500
C887        C  0.19174409  0.51471998  0.35608662    -0.24200
H888        H  0.12601851  0.46863362  0.34388260     0.14800
H889        H  0.15375743  0.00032204  0.41083299     0.14800
C890        C  0.10772654  0.93509472  0.39804057    -0.24200
H891        H  0.19433695  0.49049897  0.34234593     0.05000
H892        H  0.21669344  0.50890356  0.36916168     0.08200
H893        H  0.19690036  0.54491516  0.34726658     0.08200
H894        H  0.11479285  0.91079999  0.38484858     0.08200
H895        H  0.07691065  0.92918076  0.40631478     0.08200
H896        H  0.13142485  0.93267627  0.41215717     0.05000
C897        C  0.21701986  0.49711151  0.51609941    -0.20800
C898        C  0.25262708  0.97343696  0.51848379    -0.07400
C899        C  0.28522855  0.98013114  0.50199045     0.13500
C900        C  0.28383749  0.51278211  0.48602303    -0.20900
C901        C  0.24796346  0.53766279  0.48436754    -0.07400
C902        C  0.21406149  0.52969782  0.49987272     0.13500
C903        C  0.17479570  0.55550006  0.50004979    -0.24200
H904        H  0.19101618  0.49127325  0.52785115     0.14800
H905        H  0.30655964  0.01687451  0.47296064     0.14800
C906        C  0.32379970  0.95335896  0.50107206    -0.24200
H907        H  0.15285388  0.54579601  0.51417054     0.05000
H908        H  0.15810773  0.55210352  0.48312655     0.08200
H909        H  0.18267986  0.58847298  0.50314767     0.08200
H910        H  0.31483625  0.92044890  0.49878954     0.08200
H911        H  0.34211904  0.95713780  0.51742070     0.08200
H912        H  0.34459770  0.96183965  0.48616638     0.05000
C913        C  0.21825775  0.76368584  0.51517004    -0.20800
C914        C  0.25513312  0.78671711  0.51761808    -0.07400
C915        C  0.28940416  0.77780705  0.50258175     0.13500
C916        C  0.28548549  0.74656968  0.48562273    -0.20900
C917        C  0.24842412  0.72382509  0.48308969    -0.07400
C918        C  0.21433339  0.73254963  0.49823876     0.13500
C919        C  0.17391062  0.70872820  0.49732307    -0.24200
H920        H  0.19208184  0.76992464  0.52673654     0.14800
H921        H  0.31165164  0.74005111  0.47409321     0.14800
C922        C  0.32997791  0.80132110  0.50373272    -0.24200
H923        H  0.15193404  0.71827366  0.51144488     0.05000
H924        H  0.18012300  0.67516222  0.49959825     0.08200
H925        H  0.15806999  0.71441253  0.48032250     0.08200
H926        H  0.34520550  0.79589109  0.52093921     0.11400
H927        H  0.32412167  0.83488385  0.50116744     0.08200
H928        H  0.35229685  0.79127267  0.48989686     0.05000
C929        C  0.14001783  0.79173101  0.64056205    -0.20800
C930        C  0.15294854  0.78736391  0.61713160    -0.07400
C931        C  0.13796778  0.75360308  0.60390220     0.13500
C932        C  0.10941471  0.72607103  0.61425910    -0.20900
C933        C  0.09493235  0.73126157  0.63750078    -0.07400
C934        C  0.11125009  0.76454893  0.65094427     0.13500
C935        C  0.09861665  0.77264626  0.67610256    -0.24200
H936        H  0.15168131  0.81756036  0.65071650     0.14800
H937        H  0.09789596  0.70055517  0.60383402     0.14800
C938        C  0.15251827  0.74572603  0.57906998    -0.24200
H939        H  0.11522670  0.79965830  0.68362045     0.05000
H940        H  0.10632636  0.74543226  0.68720056     0.08200
H941        H  0.06472827  0.77953404  0.67711863     0.08200
H942        H  0.18708754  0.74364790  0.57854647     0.08200
H943        H  0.14186966  0.77097061  0.56730641     0.08200
H944        H  0.13983680  0.71631759  0.57203040     0.05000
C945        C  0.35928504  0.78264909  0.63999581    -0.20800
C946        C  0.35384027  0.78520417  0.61560480    -0.07400
C947        C  0.37524395  0.75692517  0.60090055     0.13500
C948        C  0.40352233  0.72889284  0.61095619    -0.20900
C949        C  0.41091856  0.72805835  0.63531248    -0.07400
C950        C  0.38723621  0.75458154  0.65009507     0.13500
C951        C  0.39044985  0.75371471  0.67654638    -0.24200
H952        H  0.34237221  0.80376299  0.65133844     0.14800
H953        H  0.42070635  0.70813339  0.59954147     0.14800
C954        C  0.36795062  0.75527610  0.57474653    -0.24200
H955        H  0.36694072  0.77412958  0.68502476     0.05000
H956        H  0.42157551  0.76481881  0.68215581     0.08200
H957        H  0.38495991  0.72181979  0.68310304     0.08200
H958        H  0.37934177  0.78402464  0.56622674     0.08200
H959        H  0.33415878  0.75126631  0.57119283     0.08200
H960        H  0.38478393  0.72900769  0.56645442     0.05000
C961        C  0.40915864  0.52295780  0.61121798    -0.20800
C962        C  0.41124057  0.52788965  0.63572858    -0.07400
C963        C  0.39374832  0.99546096  0.65162200     0.13500
C964        C  0.36565851  0.96808020  0.64102520    -0.20900
C965        C  0.35696915  0.96970307  0.61688740    -0.07400
C966        C  0.38146592  0.49497864  0.60075285     0.13500
C967        C  0.38119844  0.49219383  0.57427796    -0.24200
H968        H  0.43023355  0.54038692  0.60004382     0.14800
H969        H  0.35111582  0.94427976  0.65169867     0.14800
C970        C  0.40144798  0.99056630  0.67762493    -0.24200
H971        H  0.40211538  0.51548382  0.56602978     0.05000
H972        H  0.34921076  0.49792980  0.56759443     0.08200
H973        H  0.39234544  0.46130456  0.56854996     0.08200
H974        H  0.39380482  0.01981938  0.68688334     0.08200
H975        H  0.43445808  0.98184422  0.68075196     0.08200
H976        H  0.38182274  0.96584599  0.68552313     0.05000
C977        C  0.10208446  0.52552086  0.61218710    -0.20800
C978        C  0.09717698  0.52817884  0.63668207    -0.07400
C979        C  0.12221098  0.50274614  0.65126988     0.13500
C980        C  0.15569164  0.98102665  0.64132791    -0.20900
C981        C  0.15315770  0.97076050  0.61731443    -0.07400
C982        C  0.12268663  0.99099672  0.60331346     0.13500
C983        C  0.11854364  0.98376345  0.57724126    -0.24200
H984        H  0.08321694  0.54497611  0.60090483     0.14800
H985        H  0.17912639  0.96637844  0.65221139     0.14800
C986        C  0.12034321  0.50483860  0.67773361    -0.24200
H987        H  0.09466876  0.00424056  0.56920592     0.05000
H988        H  0.10868790  0.95143656  0.57385980     0.08200
H989        H  0.14868822  0.99028999  0.56832283     0.08200
H990        H  0.08959882  0.49377859  0.68416924     0.08200
H991        H  0.12575878  0.53709269  0.68359792     0.08200
H992        H  0.14447028  0.48501279  0.68604810     0.05000
C993        C  0.12316976  0.65359067  0.77256788    -0.20800
C994        C  0.16008823  0.63147714  0.76826879    -0.07400
C995        C  0.16445959  0.60918749  0.74697749     0.13500
C996        C  0.13094738  0.60782118  0.73128566    -0.20900
C997        C  0.09390523  0.62950526  0.73571300    -0.07400
C998        C  0.08981729  0.65261289  0.75672140     0.13500
C999        C  0.05034040  0.67503751  0.76367204    -0.24200
H1000       H  0.11974379  0.67070165  0.78882764     0.14800
H1001       H  0.13438021  0.59088476  0.71498183     0.14800
C1002       C  0.20443933  0.58826584  0.73945209    -0.24200
H1003       H  0.05655407  0.70877139  0.76464551     0.05000
H1004       H  0.03991934  0.66403858  0.78123135     0.08200
H1005       H  0.02404688  0.66980467  0.75151513     0.08200
H1006       H  0.23103293  0.59436525  0.75125613     0.08200
H1007       H  0.21379138  0.59991050  0.72183300     0.08200
H1008       H  0.19941463  0.55435518  0.73835320     0.05000
C1009       C  0.37184125  0.65060147  0.72947548    -0.20800
C1010       C  0.40891825  0.62921720  0.73423636    -0.07400
C1011       C  0.41341040  0.60805549  0.75585780     0.13500
C1012       C  0.38007434  0.60775545  0.77177636    -0.20900
C1013       C  0.34294302  0.62907854  0.76706339    -0.07400
C1014       C  0.33845514  0.65038585  0.74544034     0.13500
C1015       C  0.29862361  0.67148765  0.73797200    -0.24200
H1016       H  0.36839305  0.66653519  0.71281041     0.14800
H1017       H  0.38365254  0.59176764  0.78842788     0.14800
C1018       C  0.45333283  0.58715144  0.76336566    -0.24200
H1019       H  0.30422263  0.70520197  0.73596830     0.05000
H1020       H  0.27235433  0.66679960  0.75034427     0.08200
H1021       H  0.28852175  0.65883516  0.72079150     0.08200
H1022       H  0.46344989  0.60003991  0.78048587     0.08200
H1023       H  0.47955616  0.59174339  0.75093852     0.08200
H1024       H  0.44783760  0.55344660  0.76549243     0.05000
C1025       C  0.02726574  0.96962660  0.00073776    -0.20800
C1026       C  0.49633397  0.96939573  0.98346855    -0.07400
C1027       C  0.46638451  0.00174847  0.98374226     0.13500
C1028       C  0.47090462  0.53676139  0.99955588    -0.20900
C1029       C  0.49801866  0.53314838  0.01877897    -0.07400
C1030       C  0.02327696  0.49463535  0.02255676     0.13500
C1031       C  0.05022976  0.48710371  0.04378559    -0.24200
H1032       H  0.05186982  0.94664113  0.00009735     0.14800
H1033       H  0.45169878  0.56423115  0.99789246     0.14800
C1034       C  0.43177752  0.00468877  0.96592040    -0.24200
H1035       H  0.06464587  0.45584781  0.04349138     0.05000
H1036       H  0.03113826  0.48959302  0.06004573     0.08200
H1037       H  0.07592291  0.51002525  0.04425076     0.08200
H1038       H  0.41032157  0.97797573  0.96785168     0.08200
H1039       H  0.44510553  0.00540238  0.94788953     0.08200
H1040       H  0.41281202  0.03317981  0.96822949     0.05000
C1041       C  0.03108712  0.74416238  0.01710907    -0.20800
C1042       C  0.99709129  0.71688621  0.01769928    -0.07400
C1043       C  0.46258624  0.72750541  0.00240394     0.13500
C1044       C  0.46558298  0.75924193  0.98559317    -0.20900
C1045       C  0.50168661  0.78348406  0.98332174    -0.07400
C1046       C  0.03361242  0.77627495  0.00055211     0.13500
C1047       C  0.07013534  0.80557010  0.00175174    -0.24200
H1048       H  0.05572108  0.74063578  0.02994076     0.14800
H1049       H  0.43960075  0.76483643  0.97387981     0.14800
C1050       C  0.42343933  0.70167263  0.00304047    -0.24200
H1051       H  0.09058201  0.79872901  0.01698368     0.05000
H1052       H  0.05873393  0.83785074  0.00362664     0.08200
H1053       H  0.08957024  0.80278910  0.98566515     0.08200
H1054       H  0.40681033  0.70620467  0.01997253     0.08200
H1055       H  0.43147828  0.66850030  0.00073942     0.08200
H1056       H  0.40148839  0.71038054  0.98881436     0.05000
C1057       C  0.13943098  0.75287235  0.85347216    -0.20800
C1058       C  0.16114171  0.72748141  0.86927968    -0.07400
C1059       C  0.15295483  0.73131926  0.89371267     0.13500
C1060       C  0.12429545  0.76118240  0.90149234    -0.20900
C1061       C  0.10316907  0.78693911  0.88564078    -0.07400
C1062       C  0.11059173  0.78240656  0.86122581     0.13500
C1063       C  0.08972878  0.80952500  0.84312300    -0.24200
H1064       H  0.14532549  0.74985556  0.83479167     0.14800
H1065       H  0.11837676  0.76453726  0.92015486     0.14800
C1066       C  0.17495432  0.70528184  0.91187977    -0.24200
H1067       H  0.10153933  0.80328288  0.82510515     0.05000
H1068       H  0.09582762  0.84259424  0.84705788     0.08200
H1069       H  0.05564391  0.80362582  0.84300446     0.08200
H1070       H  0.20922374  0.70945658  0.91029411     0.08200
H1071       H  0.16676641  0.67220364  0.90952416     0.08200
H1072       H  0.16576690  0.71397718  0.93004602     0.05000
C1073       C  0.39965408  0.74980512  0.89294771    -0.20800
C1074       C  0.40162651  0.78946549  0.88301953    -0.07400
C1075       C  0.37570016  0.79954020  0.86382796     0.13500
C1076       C  0.34801237  0.76979089  0.85525220    -0.20900
C1077       C  0.34516248  0.73029724  0.86544149    -0.07400
C1078       C  0.37193600  0.71989343  0.88434814     0.13500
C1079       C  0.37232324  0.67731905  0.89526319    -0.24200
H1080       H  0.41993611  0.74225981  0.90754229     0.14800
H1081       H  0.32744956  0.77796242  0.84090098     0.14800
C1082       C  0.37557050  0.84220202  0.85301268    -0.24200
H1083       H  0.39752547  0.67405435  0.90847170     0.05000
H1084       H  0.37760056  0.65362724  0.88146770     0.08200
H1085       H  0.34236265  0.67122306  0.90443824     0.08200
H1086       H  0.40624910  0.84869536  0.84472671     0.08200
H1087       H  0.36893555  0.86573550  0.86671782     0.08200
H1088       H  0.35145906  0.84528896  0.83916620     0.05000
C1089       C  0.37352213  0.01111566  0.85258616    -0.20800
C1090       C  0.34494073  0.52921200  0.86714307    -0.07400
C1091       C  0.34694079  0.51969867  0.89141155     0.13500
C1092       C  0.37588456  0.49037295  0.89925324    -0.20900
C1093       C  0.40413686  0.97012338  0.88401552    -0.07400
C1094       C  0.40256313  0.98136650  0.85991621     0.13500
C1095       C  0.42987072  0.96120841  0.84156043    -0.24200
H1096       H  0.37191967  0.01949785  0.83415427     0.14800
H1097       H  0.37712086  0.48290571  0.91781569     0.14800
C1098       C  0.31760766  0.53886033  0.90912485    -0.24200
H1099       H  0.42237393  0.97224276  0.82357050     0.05000
H1100       H  0.42528629  0.92718278  0.84190379     0.08200
H1101       H  0.46310736  0.96869176  0.84483262     0.08200
H1102       H  0.28477362  0.53316820  0.90390263     0.08200
H1103       H  0.32339127  0.57261717  0.91036241     0.08200
H1104       H  0.32198846  0.52564842  0.92697267     0.05000
C1105       C  0.10893860  0.47387137  0.86394140    -0.20800
C1106       C  0.10642857  0.97051988  0.89036228    -0.07400
C1107       C  0.13787576  0.98924041  0.90425545     0.13500
C1108       C  0.16551982  0.01746918  0.89372459    -0.20900
C1109       C  0.16318087  0.52599720  0.86712424    -0.07400
C1110       C  0.13699676  0.50100029  0.85303759     0.13500
C1111       C  0.13788904  0.50213172  0.82651505    -0.24200
H1112       H  0.08954504  0.45468793  0.85288058     0.14800
H1113       H  0.19025268  0.03074077  0.90421588     0.14800
C1114       C  0.14335512  0.97971035  0.93002071    -0.24200
H1115       H  0.11399579  0.48152056  0.81870171     0.05000
H1116       H  0.16869361  0.49141268  0.81994760     0.08200
H1117       H  0.13141512  0.53400017  0.82019112     0.08200
H1118       H  0.15059911  0.94640300  0.93246655     0.08200
H1119       H  0.11454094  0.98800027  0.93983371     0.08200
H1120       H  0.16938577  0.99759615  0.93783730     0.05000
Fe1121     Fe  0.50345150  0.38052177  0.88448451     1.65800
Fe1122     Fe  0.94744075  0.37734899  0.93592453     1.73200
Fe1123     Fe  0.55329703  0.37975953  0.93678241     1.54400
O1124       O  0.58363665  0.34008049  0.91360169    -0.82200
O1125       O  0.96289660  0.42650012  0.95701796    -0.80500
O1126       O  0.54136948  0.32965525  0.88335783    -0.84700
O1127       O  0.55389877  0.41997583  0.88297308    -0.79500
O1128       O  0.53636459  0.32880232  0.95613862    -0.81300
O1129       O  0.91983592  0.41921085  0.91284711    -0.84100
C1130       C  0.57583982  0.43972833  0.89764672     0.96700
C1131       C  0.57404357  0.32114170  0.89479164     1.04100
O1132       O  0.00148579  0.37884220  0.91957737    -1.13000
O1133       O  0.92685943  0.32783906  0.91648069    -0.75500
O1134       O  0.95401227  0.34025031  0.88111614    -0.79000
O1135       O  0.57506577  0.43113296  0.91933027    -0.79700
C1136       C  0.92932971  0.32091323  0.89462010     0.95600
O1137       O  0.96427914  0.43027471  0.88339901    -0.77600
O1138       O  0.96743136  0.33537136  0.96113897    -0.82800
C1139       C  0.99655453  0.43631799  0.96718966     0.98200
C1140       C  0.00168643  0.31783484  0.96638787     1.04100
O1141       O  0.52989247  0.41932933  0.96222411    -0.78500
C1142       C  0.93064242  0.43823480  0.89417928     1.02400
Fe1143     Fe  0.75400050  0.12908095  0.87080902     1.65800
Fe1144     Fe  0.75164798  0.18162777  0.81870573     1.73200
Fe1145     Fe  0.75336286  0.07611964  0.81896577     1.54400
O1146       O  0.79650669  0.04867932  0.84107494    -0.82200
O1147       O  0.70202662  0.16383561  0.79828895    -0.80500
O1148       O  0.80333302  0.08883453  0.87244898    -0.84700
O1149       O  0.71179564  0.08147122  0.87367944    -0.79500
O1150       O  0.80215306  0.09394138  0.79779104    -0.81300
O1151       O  0.70954774  0.20879620  0.84150070    -0.84100
C1152       C  0.69429383  0.05627934  0.85982122     0.96700
C1153       C  0.81357586  0.05745032  0.86052430     1.04100
O1154       O  0.75294347  0.12894717  0.83615260    -1.13000
O1155       O  0.80128529  0.20510985  0.83713449    -0.75500
O1156       O  0.79630800  0.17665589  0.87262546    -0.79000
O1157       O  0.70460234  0.05288407  0.83840417    -0.79700
C1158       C  0.81288099  0.20186092  0.85834078     0.95600
O1159       O  0.70487295  0.16950631  0.87351903    -0.77600
O1160       O  0.79352554  0.16195939  0.79338937    -0.82800
C1161       C  0.69280732  0.12968011  0.78874003     0.98200
C1162       C  0.81113119  0.12807755  0.78804703     1.04100
O1163       O  0.71034409  0.09580291  0.79425637    -0.78500
C1164       C  0.69373613  0.20044739  0.86142752     1.02400
Fe1165     Fe  0.75466147  0.37838042  0.61702742     1.65800
Fe1166     Fe  0.70055696  0.37848751  0.56544084     1.73200
Fe1167     Fe  0.80716981  0.37787019  0.56467317     1.54400
O1168       O  0.83223244  0.42525744  0.58417721    -0.82200
O1169       O  0.71973801  0.33613104  0.54066537    -0.80500
O1170       O  0.80171124  0.42140688  0.61909510    -0.84700
O1171       O  0.79652879  0.33020491  0.61883376    -0.79500
O1172       O  0.78694003  0.42192455  0.54084783    -0.81300
O1173       O  0.67726773  0.32980400  0.58487793    -0.84100
C1174       C  0.82654712  0.31778263  0.60608684     0.96700
C1175       C  0.82839292  0.43721398  0.60524855     1.04100
O1176       O  0.75414972  0.37826303  0.58236733    -1.13000
O1177       O  0.67331279  0.42060851  0.58781280    -0.75500
O1178       O  0.71270790  0.42652427  0.61953174    -0.79000
O1179       O  0.83440684  0.33372996  0.58616571    -0.79700
C1180       C  0.68152395  0.43733578  0.60733416     0.95600
O1181       O  0.70774251  0.33534143  0.61969547    -0.77600
O1182       O  0.71799470  0.42731877  0.54410896    -0.82800
C1183       C  0.75394340  0.31971425  0.53442980     0.98200
C1184       C  0.75254308  0.43859702  0.53517532     1.04100
O1185       O  0.78863736  0.33044168  0.54303856    -0.78500
C1186       C  0.68155666  0.31857247  0.60607882     1.02400
Fe1187     Fe  0.50498090  0.12863384  0.63575782     1.65800
Fe1188     Fe  0.50526516  0.07660833  0.68819330     1.73200
Fe1189     Fe  0.50287183  0.18260066  0.68751217     1.54400
O1190       O  0.55008494  0.20756435  0.66732950    -0.82200
O1191       O  0.95908776  0.09383469  0.71298109    -0.80500
O1192       O  0.54957696  0.17410543  0.63336513    -0.84700
O1193       O  0.95511583  0.16897292  0.63389298    -0.79500
O1194       O  0.54747029  0.16474860  0.71172156    -0.81300
O1195       O  0.95657636  0.04946811  0.66934582    -0.84100
C1196       C  0.94222261  0.19885524  0.64633860     0.96700
C1197       C  0.56393679  0.20199234  0.64669464     1.04100
O1198       O  0.50431253  0.12929365  0.67052229    -1.13000
O1199       O  0.55153279  0.05083520  0.66736466    -0.75500
O1200       O  0.55240155  0.08622727  0.63390550    -0.79000
O1201       O  0.95736961  0.20672251  0.66636946    -0.79700
C1202       C  0.56626508  0.05774020  0.64701739     0.95600
O1203       O  0.95951169  0.08070997  0.63466514    -0.77600
O1204       O  0.55131501  0.09593416  0.71069899    -0.82800
C1205       C  0.94267162  0.12800198  0.71889073     0.98200
C1206       C  0.56263919  0.13063584  0.71875494     1.04100
O1207       O  0.95327708  0.16241600  0.71001657    -0.78500
C1208       C  0.94408875  0.05375654  0.64840606     1.02400
Fe1209     Fe  0.74449486  0.12736859  0.38404614     1.65800
Fe1210     Fe  0.80024863  0.12993033  0.43494899     1.73200
Fe1211     Fe  0.69366297  0.12622244  0.43668904     1.54400
O1212       O  0.66484590  0.16918046  0.41532606    -0.82200
O1213       O  0.78506436  0.08251489  0.45773598    -0.80500
O1214       O  0.70398461  0.17664270  0.38324007    -0.84700
O1215       O  0.69617682  0.08613190  0.38209551    -0.79500
O1216       O  0.71123033  0.17451615  0.45805679    -0.81300
O1217       O  0.82661147  0.08643464  0.41294988    -0.84100
C1218       C  0.67138976  0.06817494  0.39603715     0.96700
C1219       C  0.67330330  0.18721887  0.39608051     1.04100
O1220       O  0.74616699  0.12779775  0.41862593    -1.13000
O1221       O  0.82237890  0.17782931  0.41450249    -0.75500
O1222       O  0.79243105  0.16853775  0.37984414    -0.79000
O1223       O  0.66940261  0.07759478  0.41763356    -0.79700
C1224       C  0.81858460  0.18630677  0.39288647     0.95600
O1225       O  0.78507570  0.07812300  0.38207105    -0.77600
O1226       O  0.78053355  0.17361158  0.45879560    -0.82800
C1227       C  0.75111839  0.06944377  0.46655895     0.98200
C1228       C  0.74573741  0.18807764  0.46559945     1.04100
O1229       O  0.71599701  0.08344422  0.46025552    -0.78500
C1230       C  0.81679161  0.06802673  0.39410284     1.02400
Fe1231     Fe  0.99247664  0.37979223  0.36878254     1.65800
Fe1232     Fe  0.99665231  0.32818896  0.31669698     1.73200
Fe1233     Fe  0.99538535  0.43349664  0.31729259     1.54400
O1234       O  0.95104922  0.45946869  0.33911968    -0.82200
O1235       O  0.54890848  0.34525383  0.29676515    -0.80500
O1236       O  0.94034974  0.41697354  0.36939035    -0.84700
O1237       O  0.53846027  0.42888559  0.37198512    -0.79500
O1238       O  0.94732773  0.41599560  0.29530990    -0.81300
O1239       O  0.54055293  0.29978742  0.34015192    -0.84100
C1240       C  0.55562831  0.45423021  0.35798959     0.96700
C1241       C  0.93107808  0.44887801  0.35744830     1.04100
O1242       O  0.99491148  0.38053413  0.33419652    -1.13000
O1243       O  0.94587833  0.30454575  0.33460345    -0.75500
O1244       O  0.95371335  0.32951683  0.37049561    -0.79000
O1245       O  0.54533033  0.45679814  0.33652036    -0.79700
C1246       C  0.93572298  0.30582156  0.35615157     0.95600
O1247       O  0.54912215  0.34095116  0.37101366    -0.77600
O1248       O  0.95578592  0.34799473  0.29104757    -0.82800
C1249       C  0.55822535  0.37963030  0.28724927     0.98200
C1250       C  0.93823439  0.38185195  0.28563996     1.04100
O1251       O  0.53997886  0.41317372  0.29266037    -0.78500
C1252       C  0.55870005  0.30915347  0.35916256     1.02400
Fe1253     Fe  0.99673132  0.12567625  0.11766716     1.65800
Fe1254     Fe  0.55276053  0.12687547  0.06549799     1.73200
Fe1255     Fe  0.94357736  0.12562713  0.06598888     1.54400
O1256       O  0.91906745  0.07785386  0.08554146    -0.82200
O1257       O  0.53294928  0.17016829  0.04091249    -0.80500
O1258       O  0.94669818  0.08623486  0.12078570    -0.84700
O1259       O  0.95840824  0.17630202  0.11920170    -0.79500
O1260       O  0.96309909  0.08182288  0.04193646    -0.81300
O1261       O  0.57657879  0.17513813  0.08475257    -0.84100
C1262       C  0.92725002  0.18722301  0.10701876     0.96700
C1263       C  0.92119586  0.06876579  0.10716030     1.04100
O1264       O  0.49919838  0.12707236  0.08255792    -1.13000
O1265       O  0.57898563  0.08368358  0.08810835    -0.75500
O1266       O  0.53701377  0.07784004  0.11925616    -0.79000
O1267       O  0.91727868  0.16929625  0.08803044    -0.79700
C1268       C  0.56877852  0.06688011  0.10754123     0.95600
O1269       O  0.54765722  0.16781944  0.12002052    -0.77600
O1270       O  0.53567467  0.07842466  0.04418051    -0.82800
C1271       C  0.49827944  0.18657189  0.03527911     0.98200
C1272       C  0.99770516  0.06564011  0.03607919     1.04100
O1273       O  0.96152566  0.17339779  0.04433220    -0.78500
C1274       C  0.57361381  0.18475855  0.10623983     1.02400
Fe1275     Fe  0.74869829  0.37508515  0.13378769     1.65800
Fe1276     Fe  0.74667043  0.42930628  0.18508570     1.73200
Fe1277     Fe  0.75014430  0.32415065  0.18630914     1.54400
O1278       O  0.70123238  0.29943673  0.16781211    -0.82200
O1279       O  0.78873918  0.41104450  0.21070880    -0.80500
O1280       O  0.70876867  0.32522229  0.13191564    -0.84700
O1281       O  0.79992280  0.33699318  0.13248131    -0.79500
O1282       O  0.70751017  0.34406799  0.21116824    -0.81300
O1283       O  0.79625984  0.45222835  0.16605230    -0.84100
C1284       C  0.81086452  0.30619922  0.14482027     0.96700
C1285       C  0.69160646  0.30034125  0.14626290     1.04100
O1286       O  0.74842649  0.37618437  0.16840837    -1.13000
O1287       O  0.70438934  0.45535657  0.16185182    -0.75500
O1288       O  0.69759721  0.41338720  0.13124429    -0.79000
O1289       O  0.79300310  0.29698834  0.16403174    -0.79700
C1290       C  0.68723080  0.44552257  0.14255417     0.95600
O1291       O  0.78881911  0.42458101  0.13065573    -0.77600
O1292       O  0.69708617  0.41144650  0.20591465    -0.82800
C1293       C  0.80744565  0.37776198  0.21618069     0.98200
C1294       C  0.68867554  0.37747295  0.21611483     1.04100
O1295       O  0.79934633  0.34329301  0.20668543    -0.78500
C1296       C  0.80638091  0.44963833  0.14452042     1.02400
C1297       C  0.64428358  0.27806582  0.11418030    -0.20800
C1298       C  0.65957267  0.27125948  0.13705111    -0.07400
C1299       C  0.64507601  0.23625040  0.14981189     0.13500
C1300       C  0.61663973  0.20928849  0.13921429    -0.20900
C1301       C  0.60246121  0.21565868  0.11620319    -0.07400
C1302       C  0.61615918  0.25076905  0.10357160     0.13500
C1303       C  0.60063151  0.26034707  0.07916902    -0.24200
H1304       H  0.65459757  0.30489802  0.10431577     0.14800
H1305       H  0.60607335  0.18225302  0.14884761     0.14800
C1306       C  0.65970861  0.22597587  0.17431375    -0.24200
H1307       H  0.61252987  0.29052099  0.07263169     0.05000
H1308       H  0.56602226  0.26179775  0.07920279     0.08200
H1309       H  0.61136971  0.23626025  0.06667634     0.08200
H1310       H  0.65062587  0.25103289  0.18662108     0.08200
H1311       H  0.69407409  0.22169220  0.17436305     0.08200
H1312       H  0.64557973  0.19689704  0.18105637     0.05000
C1313       C  0.84966167  0.27602466  0.11127054    -0.20800
C1314       C  0.84428979  0.27881302  0.13573510    -0.07400
C1315       C  0.86965099  0.25428915  0.15059835     0.13500
C1316       C  0.89729477  0.22575792  0.14053664    -0.20900
C1317       C  0.90046329  0.22092773  0.11608171    -0.07400
C1318       C  0.87734393  0.24747440  0.10121749     0.13500
C1319       C  0.88192490  0.24656312  0.07482622    -0.24200
H1320       H  0.83099053  0.29535943  0.09981543     0.14800
H1321       H  0.91564154  0.20606981  0.15197272     0.14800
C1322       C  0.86852844  0.25817312  0.17700956    -0.24200
H1323       H  0.86411002  0.27192191  0.06629625     0.05000
H1324       H  0.86980306  0.21701204  0.06775001     0.08200
H1325       H  0.91525267  0.25030188  0.06986617     0.08200
H1326       H  0.83815993  0.24721434  0.18402303     0.08200
H1327       H  0.87368151  0.29089099  0.18210103     0.08200
H1328       H  0.89320172  0.23924072  0.18548598     0.05000
C1329       C  0.88950490  0.50105071  0.10591214    -0.20800
C1330       C  0.89168053  0.03769929  0.11689601    -0.07400
C1331       C  0.89958594  0.01493702  0.13779317     0.13500
C1332       C  0.86939263  0.98711614  0.14613553    -0.20900
C1333       C  0.83881404  0.47823012  0.13522026    -0.07400
C1334       C  0.86121316  0.47106278  0.11400529     0.13500
C1335       C  0.85635405  0.43195295  0.09985657    -0.24200
H1336       H  0.90632545  0.49599787  0.08959625     0.14800
H1337       H  0.87527558  0.96960247  0.16205555     0.14800
C1338       C  0.93983824  0.01876263  0.15126035    -0.24200
H1339       H  0.87856408  0.43080465  0.08483897     0.05000
H1340       H  0.82446359  0.43018198  0.09244095     0.08200
H1341       H  0.86250762  0.40455679  0.11112764     0.08200
H1342       H  0.94263229  0.05022301  0.15883373     0.08200
H1343       H  0.96674244  0.01234230  0.13946847     0.08200
H1344       H  0.94135029  0.99649061  0.16612026     0.05000
C1345       C  0.61544777  0.00683484  0.10110487    -0.20800
C1346       C  0.59535965  0.03339335  0.11699307    -0.07400
C1347       C  0.60277895  0.52752015  0.14141396     0.13500
C1348       C  0.63153035  0.49765956  0.14899367    -0.20900
C1349       C  0.65431620  0.47336510  0.13303212    -0.07400
C1350       C  0.64314463  0.97609961  0.10878622     0.13500
C1351       C  0.66446127  0.94951913  0.09059314    -0.24200
H1352       H  0.60981005  0.01050648  0.08247132     0.14800
H1353       H  0.63670776  0.49368500  0.16766755     0.14800
C1354       C  0.58120470  0.55375049  0.15969740    -0.24200
H1355       H  0.65534987  0.95831611  0.07245153     0.05000
H1356       H  0.65560981  0.91663686  0.09317979     0.08200
H1357       H  0.69880539  0.95296022  0.09193969     0.08200
H1358       H  0.54709760  0.54802567  0.15938508     0.08200
H1359       H  0.58762217  0.58698794  0.15629980     0.08200
H1360       H  0.59218275  0.54649928  0.17772371     0.05000
C1361       C  0.62398184  0.35120403  0.27062019    -0.20800
C1362       C  0.59164100  0.38035128  0.26906530    -0.07400
C1363       C  0.59128963  0.40828299  0.24981583     0.13500
C1364       C  0.62319351  0.40619264  0.23290274    -0.20900
C1365       C  0.65554369  0.37701901  0.23446744    -0.07400
C1366       C  0.65598954  0.34919204  0.25377877     0.13500
C1367       C  0.69049443  0.31803288  0.25732049    -0.24200
H1368       H  0.62441312  0.32982124  0.28533544     0.14800
H1369       H  0.62261979  0.42744058  0.21812404     0.14800
C1370       C  0.55691723  0.43960969  0.24640314    -0.24200
H1371       H  0.69007298  0.29476154  0.24303102     0.05000
H1372       H  0.68695858  0.30096500  0.27417464     0.08200
H1373       H  0.72113662  0.33399301  0.25764458     0.08200
H1374       H  0.52620492  0.42380753  0.24605914     0.08200
H1375       H  0.56048366  0.45683889  0.22961109     0.08200
H1376       H  0.55747228  0.46270690  0.26078119     0.05000
C1377       C  0.86596971  0.39727050  0.27307852    -0.20800
C1378       C  0.90540243  0.38117395  0.26751343    -0.07400
C1379       C  0.91235532  0.36369490  0.24508591     0.13500
C1380       C  0.87970002  0.36307834  0.22872623    -0.20900
C1381       C  0.84022157  0.37915756  0.23429533    -0.07400
C1382       C  0.83299374  0.39571156  0.25696702     0.13500
C1383       C  0.79063000  0.40999894  0.26529198    -0.24200
H1384       H  0.86038442  0.40967815  0.29045430     0.14800
H1385       H  0.88507661  0.35029133  0.21140126     0.14800
C1386       C  0.95441824  0.34670476  0.23809527    -0.24200
H1387       H  0.79192513  0.44337043  0.26977182     0.05000
H1388       H  0.78160326  0.39228469  0.28125844     0.08200
H1389       H  0.76564692  0.40530797  0.25220652     0.08200
H1390       H  0.97857559  0.37104444  0.24002460     0.08200
H1391       H  0.95480179  0.33607100  0.21955616     0.08200
H1392       H  0.96250860  0.31981840  0.24933289     0.05000
C1393       C  0.59241619  0.27398500  0.39280412    -0.20800
C1394       C  0.59083083  0.28069271  0.36845212    -0.07400
C1395       C  0.61846610  0.25874201  0.35360135     0.13500
C1396       C  0.64542653  0.22938000  0.36336984    -0.20900
C1397       C  0.64563075  0.22093188  0.38759868    -0.07400
C1398       C  0.61924361  0.24434837  0.40263490     0.13500
C1399       C  0.61912577  0.23895862  0.42898255    -0.24200
H1400       H  0.57147114  0.29113843  0.40419324     0.14800
H1401       H  0.66585823  0.21211881  0.35175430     0.14800
C1402       C  0.62064025  0.26667029  0.32750975    -0.24200
H1403       H  0.59859286  0.26191906  0.43780017     0.05000
H1404       H  0.65115616  0.24318130  0.43592361     0.08200
H1405       H  0.60726169  0.20781894  0.43376076     0.08200
H1406       H  0.62604678  0.30010246  0.32428433     0.08200
H1407       H  0.59132580  0.25678393  0.31892711     0.08200
H1408       H  0.64653604  0.24928047  0.31905309     0.05000
C1409       C  0.85363403  0.25410786  0.39507079    -0.20800
C1410       C  0.84602009  0.21791184  0.38238298    -0.07400
C1411       C  0.86578444  0.21195240  0.36038402     0.13500
C1412       C  0.89382775  0.24183125  0.35208703    -0.20900
C1413       C  0.90281590  0.27753592  0.36513264    -0.07400
C1414       C  0.88138610  0.28425981  0.38673292     0.13500
C1415       C  0.88673269  0.32305479  0.40112984    -0.24200
H1416       H  0.83776546  0.25871638  0.41173750     0.14800
H1417       H  0.90980939  0.23652178  0.33554268     0.14800
C1418       C  0.85911182  0.17333968  0.34603149    -0.24200
H1419       H  0.86477726  0.32403960  0.41627104     0.05000
H1420       H  0.88053359  0.35072748  0.39008791     0.08200
H1421       H  0.91870891  0.32448218  0.40844624     0.08200
H1422       H  0.82621667  0.17164078  0.34014427     0.08200
H1423       H  0.86681837  0.14555690  0.35667691     0.08200
H1424       H  0.87910774  0.17287834  0.33005247     0.05000
C1425       C  0.84486992  0.02668663  0.36096440    -0.20800
C1426       C  0.84427252  0.03448816  0.38524220    -0.07400
C1427       C  0.87058983  0.01091399  0.40013309     0.13500
C1428       C  0.89822742  0.98224014  0.39016394    -0.20900
C1429       C  0.89740324  0.47630678  0.36606619    -0.07400
C1430       C  0.87243005  0.50053436  0.35084435     0.13500
C1431       C  0.87366569  0.49529407  0.32453169    -0.24200
H1432       H  0.82701446  0.54933340  0.34875361     0.14800
H1433       H  0.91927582  0.96527644  0.40152241     0.14800
C1434       C  0.86971524  0.01506432  0.42653212    -0.24200
H1435       H  0.84928594  0.51409002  0.31570119     0.05000
H1436       H  0.86811436  0.46239480  0.32005049     0.08200
H1437       H  0.90422763  0.50539961  0.31738124     0.08200
H1438       H  0.83740485  0.01051315  0.43312381     0.08200
H1439       H  0.88143439  0.04592175  0.43182740     0.08200
H1440       H  0.88985265  0.99165879  0.43521950     0.05000
C1441       C  0.61844146  0.98936546  0.35594645    -0.20800
C1442       C  0.58759613  0.48326923  0.36719793    -0.07400
C1443       C  0.61298158  0.47417920  0.38695885     0.13500
C1444       C  0.60650427  0.02669292  0.39959092    -0.20900
C1445       C  0.64254093  0.03629563  0.38653817    -0.07400
C1446       C  0.64884157  0.01664298  0.36444255     0.13500
C1447       C  0.68745179  0.02339445  0.34965245    -0.24200
H1448       H  0.62291358  0.97463171  0.33901321     0.14800
H1449       H  0.65942171  0.49794804  0.41073578     0.14800
C1450       C  0.61264738  0.43237667  0.39878824    -0.24200
H1451       H  0.68803863  0.00299754  0.33397527     0.05000
H1452       H  0.71574583  0.01641484  0.36013158     0.08200
H1453       H  0.68849799  0.05574030  0.34312773     0.08200
H1454       H  0.61890024  0.40779555  0.38563542     0.08200
H1455       H  0.58210508  0.42686754  0.40745284     0.08200
H1456       H  0.63694679  0.43002125  0.41258341     0.05000
C1457       C  0.72243766  0.99691920  0.51714333    -0.20800
C1458       C  0.75246305  0.47268966  0.51749536    -0.07400
C1459       C  0.78277235  0.47584869  0.49936454     0.13500
C1460       C  0.78954050  0.01337159  0.48741836    -0.20900
C1461       C  0.75268811  0.03662726  0.48495472    -0.07400
C1462       C  0.71881621  0.02850327  0.50043861     0.13500
C1463       C  0.67873814  0.05308852  0.50010992    -0.24200
H1464       H  0.69626024  0.99091439  0.52875210     0.14800
H1465       H  0.80396906  0.51090456  0.46961783     0.14800
C1466       C  0.81676085  0.44407421  0.49607907    -0.24200
H1467       H  0.65710973  0.04371714  0.51445596     0.05000
H1468       H  0.66207828  0.04800283  0.48331884     0.08200
H1469       H  0.68558418  0.08646940  0.50249252     0.08200
H1470       H  0.80263353  0.41295088  0.49427383     0.08200
H1471       H  0.83842654  0.44458750  0.51121404     0.08200
H1472       H  0.83561763  0.45006555  0.48001318     0.05000
C1473       C  0.71722937  0.26093929  0.51585153    -0.20800
C1474       C  0.75267435  0.28640041  0.51658690    -0.07400
C1475       C  0.78509205  0.28005018  0.50001014     0.13500
C1476       C  0.78127065  0.24825032  0.48346662    -0.20900
C1477       C  0.74612314  0.22232520  0.48293893    -0.07400
C1478       C  0.71352386  0.22890462  0.49941875     0.13500
C1479       C  0.67532758  0.20174062  0.50048752    -0.24200
H1480       H  0.69235541  0.26576216  0.52851578     0.14800
H1481       H  0.80610046  0.24365833  0.47074199     0.14800
C1482       C  0.82333356  0.30714200  0.49906888    -0.24200
H1483       H  0.65448567  0.21014070  0.51537507     0.05000
H1484       H  0.68475288  0.16895230  0.50289334     0.08200
H1485       H  0.65695673  0.20516226  0.48412130     0.08200
H1486       H  0.84193715  0.30316828  0.51530643     0.11400
H1487       H  0.81391748  0.33996489  0.49708626     0.08200
H1488       H  0.84393677  0.29923372  0.48399406     0.05000
C1489       C  0.64752289  0.28559716  0.64045446    -0.20800
C1490       C  0.65394998  0.28598728  0.61601133    -0.07400
C1491       C  0.63336071  0.25615203  0.60208180     0.13500
C1492       C  0.60530340  0.22868544  0.61283522    -0.20900
C1493       C  0.59704467  0.22979533  0.63716200    -0.07400
C1494       C  0.61964553  0.25807912  0.65125059     0.13500
C1495       C  0.61514205  0.25991876  0.67763840    -0.24200
H1496       H  0.66365823  0.30791232  0.65130260     0.14800
H1497       H  0.58896443  0.20670188  0.60187981     0.14800
C1498       C  0.64099759  0.25228178  0.57599663    -0.24200
H1499       H  0.63729986  0.28218425  0.68560966     0.05000
H1500       H  0.62167358  0.22904169  0.68538659     0.08200
H1501       H  0.58326074  0.27028467  0.68250524     0.08200
H1502       H  0.67486850  0.24823041  0.57253794     0.08200
H1503       H  0.62931203  0.28013762  0.56669978     0.08200
H1504       H  0.62460713  0.22517760  0.56843312     0.05000
C1505       C  0.85455892  0.27812822  0.64003156    -0.20800
C1506       C  0.85417492  0.28455653  0.61556424    -0.07400
C1507       C  0.88055531  0.25983287  0.60125186     0.13500
C1508       C  0.90770314  0.23131566  0.61189346    -0.20900
C1509       C  0.90970925  0.22671126  0.63643487    -0.07400
C1510       C  0.88180190  0.24976134  0.65064525     0.13500
C1511       C  0.87973986  0.24437147  0.67695884    -0.24200
H1512       H  0.83408546  0.29628641  0.65115882     0.14800
H1513       H  0.92855586  0.21333956  0.60088324     0.14800
C1514       C  0.88035645  0.26267570  0.57479126    -0.24200
H1515       H  0.85369948  0.26233411  0.68486636     0.05000
H1516       H  0.90897499  0.25545562  0.68515720     0.08200
H1517       H  0.87466928  0.21127914  0.68133262     0.08200
H1518       H  0.89207847  0.29334607  0.56901950     0.08200
H1519       H  0.84825110  0.25771305  0.56812197     0.08200
H1520       H  0.90083529  0.23894721  0.56661798     0.05000
C1521       C  0.90342093  0.02636541  0.61472178    -0.20800
C1522       C  0.91139656  0.02548630  0.63904844    -0.07400
C1523       C  0.88220473  0.50647609  0.64957026     0.13500
C1524       C  0.85474311  0.47859579  0.63888012    -0.20900
C1525       C  0.85661325  0.46992312  0.61463974    -0.07400
C1526       C  0.87597691  0.99838664  0.60411368     0.13500
C1527       C  0.86808090  0.00220743  0.57807952    -0.24200
H1528       H  0.91938678  0.04864931  0.60366406     0.14800
H1529       H  0.83205746  0.46283322  0.64983936     0.14800
C1530       C  0.87760056  0.51438743  0.67557108    -0.24200
H1531       H  0.88387577  0.02967313  0.57039318     0.05000
H1532       H  0.83410616  0.00554535  0.57482844     0.08200
H1533       H  0.88023233  0.97460836  0.56874295     0.08200
H1534       H  0.87352007  0.54802452  0.67877977     0.08200
H1535       H  0.90543030  0.50285350  0.68507470     0.08200
H1536       H  0.85004371  0.49825284  0.68311529     0.05000
C1537       C  0.60098981  0.02497867  0.61284408    -0.20800
C1538       C  0.59937901  0.03040880  0.63732452    -0.07400
C1539       C  0.62851326  0.00913815  0.65151298     0.13500
C1540       C  0.65302592  0.47774508  0.64095411    -0.20900
C1541       C  0.65292169  0.46976308  0.61665568    -0.07400
C1542       C  0.62490430  0.49219406  0.60215469     0.13500
C1543       C  0.62368736  0.48718058  0.57581552    -0.24200
H1544       H  0.57936846  0.04187009  0.60180858     0.14800
H1545       H  0.67449095  0.46106462  0.65218472     0.14800
C1546       C  0.63154123  0.01646253  0.67760190    -0.24200
H1547       H  0.60198291  0.50950910  0.56742265     0.05000
H1548       H  0.61266731  0.45572515  0.57119060     0.08200
H1549       H  0.65518568  0.49270927  0.56830830     0.08200
H1550       H  0.60291131  0.00542597  0.68662576     0.08200
H1551       H  0.63602192  0.04995674  0.68096435     0.08200
H1552       H  0.65834165  0.99969003  0.68546614     0.05000
C1553       C  0.62313982  0.15157781  0.77486117    -0.20800
C1554       C  0.66012678  0.12954889  0.77048929    -0.07400
C1555       C  0.66491849  0.10842394  0.74884488     0.13500
C1556       C  0.63209816  0.10890516  0.73265260    -0.20900
C1557       C  0.59522843  0.13098902  0.73699673    -0.07400
C1558       C  0.59040970  0.15220412  0.75857180     0.13500
C1559       C  0.55074360  0.17416357  0.76560843    -0.24200
H1560       H  0.61927401  0.16762169  0.79144833     0.14800
H1561       H  0.63587450  0.09286334  0.71608524     0.14800
C1562       C  0.70460278  0.08678664  0.74147763    -0.24200
H1563       H  0.55715974  0.20763641  0.76796622     0.05000
H1564       H  0.53920001  0.16124350  0.78251651     0.08200
H1565       H  0.52522056  0.17069600  0.75274435     0.08200
H1566       H  0.73069457  0.09089445  0.75388048     0.08200
H1567       H  0.71529843  0.09946018  0.72433466     0.08200
H1568       H  0.69851384  0.05319222  0.73940963     0.05000
C1569       C  0.87138446  0.14639024  0.73144071    -0.20800
C1570       C  0.90966689  0.12782886  0.73690480    -0.07400
C1571       C  0.91544568  0.10971498  0.75931482     0.13500
C1572       C  0.88231153  0.10985928  0.77541727    -0.20900
C1573       C  0.84398177  0.12833188  0.76994085    -0.07400
C1574       C  0.83818564  0.14643784  0.74752093     0.13500
C1575       C  0.79719135  0.16435785  0.73943017    -0.24200
H1576       H  0.86695036  0.15996828  0.71419475     0.14800
H1577       H  0.88678194  0.09624379  0.79266467     0.14800
C1578       C  0.95634938  0.09148812  0.76732345    -0.24200
H1579       H  0.80113840  0.19779392  0.73553408     0.05000
H1580       H  0.77160761  0.16078116  0.75237144     0.08200
H1581       H  0.78718921  0.14838294  0.72315045     0.08200
H1582       H  0.96666109  0.10748186  0.78353445     0.08200
H1583       H  0.98180502  0.09468433  0.75426488     0.08200
H1584       H  0.95212368  0.05811740  0.77130766     0.05000
C1585       C  0.52096599  0.46662020  0.00362798    -0.20800
C1586       C  0.99584982  0.46911113  0.98523928    -0.07400
C1587       C  0.97159619  0.50545234  0.98283047     0.13500
C1588       C  0.96395678  0.02846465  0.00308174    -0.20900
C1589       C  0.99757191  0.03122992  0.01876730    -0.07400
C1590       C  0.53105955  0.00071751  0.01745172     0.13500
C1591       C  0.56540304  0.99777063  0.03541963    -0.24200
H1592       H  0.54017627  0.43916961  0.00534479     0.14800
H1593       H  0.93940962  0.05150906  0.00383966     0.14800
C1594       C  0.94490496  0.51333746  0.96151903    -0.24200
H1595       H  0.58414761  0.96908136  0.03334471     0.05000
H1596       H  0.55172450  0.99747814  0.05336695     0.08200
H1597       H  0.58711706  0.02426939  0.03347781     0.08200
H1598       H  0.91926005  0.49038308  0.96074513     0.08200
H1599       H  0.96424610  0.51129289  0.94533235     0.08200
H1600       H  0.93039203  0.54454227  0.96195389     0.05000
C1601       C  0.53446584  0.24445698  0.01489198    -0.20800
C1602       C  0.49809003  0.22074332  0.01768779    -0.07400
C1603       C  0.96096291  0.22950941  0.00397550     0.13500
C1604       C  0.96413209  0.26146821  0.98733172    -0.20900
C1605       C  0.00121553  0.28390886  0.98410965    -0.07400
C1606       C  0.53698663  0.27665970  0.99836416     0.13500
C1607       C  0.57662078  0.30172227  0.99719038    -0.24200
H1608       H  0.56118710  0.23801579  0.02592508     0.14800
H1609       H  0.93731443  0.26874812  0.97653350     0.14800
C1610       C  0.92023469  0.20632941  0.00577230    -0.24200
H1611       H  0.59918453  0.29228562  0.01095883     0.05000
H1612       H  0.56940537  0.33499245  0.99986072     0.08200
H1613       H  0.59222819  0.29721995  0.97995303     0.08200
H1614       H  0.90590687  0.21129919  0.02331804     0.08200
H1615       H  0.92562582  0.17281352  0.00278376     0.08200
H1616       H  0.89731572  0.21706405  0.99250485     0.05000
C1617       C  0.63304041  0.24606414  0.85492161    -0.20800
C1618       C  0.66126178  0.22847278  0.87079432    -0.07400
C1619       C  0.65965434  0.24024180  0.89470691     0.13500
C1620       C  0.63024886  0.26976879  0.90193885    -0.20900
C1621       C  0.60238650  0.28811872  0.88599061    -0.07400
C1622       C  0.60363255  0.27561688  0.86207445     0.13500
C1623       C  0.57541581  0.29392053  0.84360701    -0.24200
H1624       H  0.63436269  0.23687274  0.83662491     0.14800
H1625       H  0.62939997  0.27891180  0.92024041     0.14800
C1626       C  0.68995265  0.22341911  0.91255069    -0.24200
H1627       H  0.58244403  0.28161546  0.82581927     0.05000
H1628       H  0.57951790  0.32800071  0.84289527     0.08200
H1629       H  0.54242350  0.28614664  0.84758839     0.08200
H1630       H  0.72245744  0.22965014  0.90673420     0.08200
H1631       H  0.68529247  0.18963130  0.91476256     0.08200
H1632       H  0.68557081  0.23792897  0.93005818     0.05000
C1633       C  0.90011767  0.25018249  0.89429932    -0.20800
C1634       C  0.90167087  0.28974147  0.88427402    -0.07400
C1635       C  0.87586559  0.29943471  0.86499504     0.13500
C1636       C  0.84816817  0.26959069  0.85662731    -0.20900
C1637       C  0.84553322  0.23023260  0.86699198    -0.07400
C1638       C  0.87264882  0.22001969  0.88578267     0.13500
C1639       C  0.87368491  0.17742722  0.89666479    -0.24200
H1640       H  0.92052226  0.24293105  0.90888253     0.14800
H1641       H  0.82752085  0.27757149  0.84228456     0.14800
C1642       C  0.87613429  0.34171726  0.85376166    -0.24200
H1643       H  0.89929027  0.17434143  0.90963708     0.05000
H1644       H  0.87878737  0.15380452  0.88280872     0.08200
H1645       H  0.84405336  0.17106615  0.90611692     0.08200
H1646       H  0.90697167  0.34751849  0.84550408     0.08200
H1647       H  0.86962967  0.36574860  0.86720458     0.08200
H1648       H  0.85218486  0.34457479  0.83981137     0.05000
C1649       C  0.86919703  0.50743310  0.85234450    -0.20800
C1650       C  0.84619911  0.02935282  0.86973475    -0.07400
C1651       C  0.84967256  0.01995809  0.89397981     0.13500
C1652       C  0.87873222  0.99024710  0.90130169    -0.20900
C1653       C  0.90257899  0.47066785  0.88462256    -0.07400
C1654       C  0.89856403  0.47836719  0.86016842     0.13500
C1655       C  0.92393663  0.45541646  0.84201413    -0.24200
H1656       H  0.86569384  0.51285437  0.83365332     0.14800
H1657       H  0.88082406  0.98258951  0.91980953     0.14800
C1658       C  0.82176820  0.03955739  0.91224148    -0.24200
H1659       H  0.91477281  0.46387937  0.82383104     0.05000
H1660       H  0.91929463  0.42164008  0.84407585     0.08200
H1661       H  0.95747782  0.46306804  0.84392640     0.08200
H1662       H  0.78855128  0.03390113  0.90783509     0.08200
H1663       H  0.82779282  0.07331253  0.91311514     0.08200
H1664       H  0.82742758  0.02666271  0.93005055     0.05000
C1665       C  0.59988812  0.98607606  0.86629324    -0.20800
C1666       C  0.60364735  0.47318046  0.88858365    -0.07400
C1667       C  0.63298116  0.49445712  0.90273193     0.13500
C1668       C  0.66061635  0.52248344  0.89211432    -0.20900
C1669       C  0.66181950  0.02868703  0.86955633    -0.07400
C1670       C  0.62761138  0.01457779  0.85622426     0.13500
C1671       C  0.61935636  0.03001500  0.83163796    -0.24200
H1672       H  0.57413159  0.97489979  0.85581199     0.14800
H1673       H  0.68378386  0.53757665  0.90292371     0.14800
C1674       C  0.63633146  0.48787074  0.92891259    -0.24200
H1675       H  0.58932078  0.01819076  0.82470855     0.05000
H1676       H  0.64431770  0.01944974  0.81950541     0.08200
H1677       H  0.61777948  0.06433760  0.83157140     0.08200
H1678       H  0.64499222  0.45529656  0.93271484     0.08200
H1679       H  0.60622646  0.49567351  0.93755126     0.08200
H1680       H  0.66062656  0.50781818  0.93688521     0.05000
Fe1681     Fe  0.50394403  0.87978603  0.88400018     1.65800
Fe1682     Fe  0.94787416  0.87379741  0.93512983     1.73200
Fe1683     Fe  0.55366823  0.87720715  0.93635202     1.54400
O1684       O  0.58385044  0.83821369  0.91281740    -0.82200
O1685       O  0.96197379  0.92299662  0.95651539    -0.80500
O1686       O  0.54157596  0.82894805  0.88234405    -0.84700
O1687       O  0.55478875  0.91897895  0.88280496    -0.79500
O1688       O  0.53637204  0.82580741  0.95523531    -0.81300
O1689       O  0.92061269  0.91560489  0.91189942    -0.84100
C1690       C  0.57673675  0.93797565  0.89781577     0.96700
C1691       C  0.57431332  0.82035793  0.89367983     1.04100
O1692       O  0.00225379  0.87643500  0.91934570    -1.13000
O1693       O  0.92904136  0.82422362  0.91519100    -0.75500
O1694       O  0.95451530  0.84070055  0.88000032    -0.79000
O1695       O  0.57552244  0.92883555  0.91940633    -0.79700
C1696       C  0.93061346  0.81956925  0.89311063     0.95600
O1697       O  0.96712819  0.93035427  0.88400936    -0.77600
O1698       O  0.96742390  0.83182940  0.96048515    -0.82800
C1699       C  0.99518414  0.93348004  0.96693367     0.98200
C1700       C  0.00174260  0.81473144  0.96600446     1.04100
O1701       O  0.53053934  0.91640943  0.96202472    -0.78500
C1702       C  0.93257927  0.93673598  0.89420263     1.02400
Fe1703     Fe  0.75351588  0.63016055  0.86819622     1.65800
Fe1704     Fe  0.75190363  0.68202670  0.81602195     1.73200
Fe1705     Fe  0.75196139  0.57639937  0.81692978     1.54400
O1706       O  0.79425035  0.54848485  0.83944328    -0.82200
O1707       O  0.70148807  0.66462365  0.79605733    -0.80500
O1708       O  0.80306295  0.59038648  0.86990409    -0.84700
O1709       O  0.71149267  0.58227727  0.87155104    -0.79500
O1710       O  0.80116069  0.59300006  0.79576300    -0.81300
O1711       O  0.71085589  0.71045016  0.83903563    -0.84100
C1712       C  0.69293398  0.55757230  0.85783286     0.96700
C1713       C  0.81208462  0.55798119  0.85857894     1.04100
O1714       O  0.75250767  0.62954402  0.83367245    -1.13000
O1715       O  0.80246687  0.70501260  0.83399438    -0.75500
O1716       O  0.79560016  0.67817927  0.86979456    -0.79000
O1717       O  0.70252694  0.55454398  0.83631164    -0.79700
C1718       C  0.81323723  0.70247166  0.85537286     0.95600
O1719       O  0.70404063  0.66984945  0.87030653    -0.77600
O1720       O  0.79275985  0.66092059  0.79056910    -0.82800
C1721       C  0.69210215  0.63040070  0.78661058     0.98200
C1722       C  0.81011218  0.62674232  0.78556150     1.04100
O1723       O  0.70960550  0.59652235  0.79210456    -0.78500
C1724       C  0.69391654  0.70153145  0.85861529     1.02400
Fe1725     Fe  0.75375998  0.87804615  0.61845605     1.65800
Fe1726     Fe  0.70229051  0.87954532  0.56608330     1.73200
Fe1727     Fe  0.80910052  0.87712277  0.56687731     1.54400
O1728       O  0.83498224  0.92249021  0.58765448    -0.82200
O1729       O  0.72104389  0.83446681  0.54286587    -0.80500
O1730       O  0.80006420  0.92126198  0.62139736    -0.84700
O1731       O  0.79535453  0.83001516  0.62068912    -0.79500
O1732       O  0.79236731  0.92320814  0.54374355    -0.81300
O1733       O  0.67508316  0.83319949  0.58590760    -0.84100
C1734       C  0.82414992  0.81575764  0.60772014     0.96700
C1735       C  0.82854854  0.93567809  0.60830001     1.04100
O1736       O  0.75505957  0.87825943  0.58377975    -1.13000
O1737       O  0.67641930  0.92497904  0.58708567    -0.75500
O1738       O  0.71182483  0.92594500  0.62045245    -0.79000
O1739       O  0.83279865  0.83080901  0.58773894    -0.79700
C1740       C  0.68323537  0.93982424  0.60730688     0.95600
O1741       O  0.70721051  0.83492216  0.62039941    -0.77600
O1742       O  0.72315100  0.92563291  0.54397506    -0.82800
C1743       C  0.75549079  0.81920398  0.53610020     0.98200
C1744       C  0.75829752  0.93854218  0.53667287     1.04100
O1745       O  0.79016743  0.83165456  0.54396891    -0.78500
C1746       C  0.67989210  0.82032700  0.60676367     1.02400
Fe1747     Fe  0.50456513  0.62820999  0.63457192     1.65800
Fe1748     Fe  0.50270881  0.57530794  0.68680565     1.73200
Fe1749     Fe  0.50245668  0.68108571  0.68651822     1.54400
O1750       O  0.55089509  0.70507885  0.66717829    -0.82200
O1751       O  0.95805995  0.59303941  0.71065079    -0.80500
O1752       O  0.54892753  0.67438518  0.63243970    -0.84700
O1753       O  0.95558962  0.66970657  0.63246387    -0.79500
O1754       O  0.54528075  0.66212997  0.71115982    -0.81300
O1755       O  0.95657075  0.54976764  0.66671554    -0.84100
C1756       C  0.94141369  0.69812019  0.64558863     0.96700
C1757       C  0.56382386  0.70130401  0.64626094     1.04100
O1758       O  0.50329167  0.62816310  0.66931608    -1.13000
O1759       O  0.54794693  0.54849064  0.66597823    -0.75500
O1760       O  0.55220861  0.58554853  0.63309952    -0.79000
O1761       O  0.95651908  0.70544349  0.66562165    -0.79700
C1762       C  0.56408787  0.55583791  0.64605413     0.95600
O1763       O  0.96068680  0.58178645  0.63221275    -0.77600
O1764       O  0.54929843  0.59338905  0.70939139    -0.82800
C1765       C  0.94230068  0.62715680  0.71705410     0.98200
C1766       C  0.56034105  0.62787736  0.71790173     1.04100
O1767       O  0.95387444  0.66177802  0.70893119    -0.78500
C1768       C  0.94485456  0.55463925  0.64564207     1.02400
Fe1769     Fe  0.74650415  0.63291022  0.38363406     1.65800
Fe1770     Fe  0.80014558  0.63074215  0.43520735     1.73200
Fe1771     Fe  0.69380850  0.63064250  0.43560079     1.54400
O1772       O  0.66542725  0.67221362  0.41301693    -0.82200
O1773       O  0.78250188  0.58178555  0.45637754    -0.80500
O1774       O  0.70785411  0.68385969  0.38272167    -0.84700
O1775       O  0.69615944  0.59378188  0.38076267    -0.79500
O1776       O  0.71125650  0.67990567  0.45634843    -0.81300
O1777       O  0.82639654  0.58826416  0.41254261    -0.84100
C1778       C  0.67215239  0.57443657  0.39465795     0.96700
C1779       C  0.67506725  0.69188139  0.39445374     1.04100
O1780       O  0.74688672  0.63153643  0.41819915    -1.13000
O1781       O  0.82465525  0.67961790  0.41617401    -0.75500
O1782       O  0.79674524  0.67226554  0.38085778    -0.79000
O1783       O  0.67145168  0.58104690  0.41661622    -0.79700
C1784       C  0.82237978  0.68931991  0.39460323     0.95600
O1785       O  0.78481198  0.58189584  0.38152422    -0.77600
O1786       O  0.78003573  0.67284969  0.45996828    -0.82800
C1787       C  0.74823450  0.57170104  0.46604911     0.98200
C1788       C  0.74576187  0.69005223  0.46555243     1.04100
O1789       O  0.71409161  0.58896931  0.46065872    -0.78500
C1790       C  0.81599003  0.57047400  0.39360618     1.02400
Fe1791     Fe  0.99777682  0.88084236  0.36709946     1.65800
Fe1792     Fe  0.99967311  0.82866171  0.31512054     1.73200
Fe1793     Fe  0.99589676  0.93446215  0.31520352     1.54400
O1794       O  0.95120194  0.95905431  0.33713113    -0.82200
O1795       O  0.54266648  0.84568968  0.29410005    -0.80500
O1796       O  0.94644858  0.91917014  0.36896113    -0.84700
O1797       O  0.53441587  0.92556944  0.37166697    -0.79500
O1798       O  0.94855682  0.91511176  0.29339667    -0.81300
O1799       O  0.53698159  0.79959272  0.33726140    -0.84100
C1800       C  0.55087251  0.95271095  0.35859481     0.96700
C1801       C  0.93427634  0.94952492  0.35654908     1.04100
O1802       O  0.99781663  0.88133454  0.33243641    -1.13000
O1803       O  0.95218644  0.80235414  0.33472927    -0.75500
O1804       O  0.95838593  0.83112791  0.36999765    -0.79000
O1805       O  0.54123472  0.95715693  0.33716135    -0.79700
C1806       C  0.94267325  0.80468792  0.35632502     0.95600
O1807       O  0.54171840  0.83742051  0.36971542    -0.77600
O1808       O  0.95533903  0.84686082  0.29119649    -0.82800
C1809       C  0.55509931  0.88032854  0.28622909     0.98200
C1810       C  0.93820437  0.88036295  0.28487390     1.04100
O1811       O  0.53962456  0.91435457  0.29307606    -0.78500
C1812       C  0.55351187  0.80739438  0.35697190     1.02400
Fe1813     Fe  0.99842876  0.62851439  0.11847869     1.65800
Fe1814     Fe  0.55087117  0.62676879  0.06591443     1.73200
Fe1815     Fe  0.94528504  0.62517604  0.06677534     1.54400
O1816       O  0.92236263  0.57697901  0.08665405    -0.82200
O1817       O  0.53062801  0.66892701  0.04085462    -0.80500
O1818       O  0.94995141  0.58727959  0.12194920    -0.84700
O1819       O  0.95806355  0.67802671  0.11932595    -0.79500
O1820       O  0.96547475  0.58206553  0.04266697    -0.81300
O1821       O  0.57391364  0.67618236  0.08470163    -0.84100
C1822       C  0.92640264  0.68743525  0.10713659     0.96700
C1823       C  0.92478280  0.56898584  0.10841032     1.04100
O1824       O  0.49759181  0.62679113  0.08317584    -1.13000
O1825       O  0.57866790  0.58457846  0.08869482    -0.75500
O1826       O  0.53582993  0.57564744  0.11914825    -0.79000
O1827       O  0.91721327  0.66835728  0.08842692    -0.79700
C1828       C  0.56850355  0.56637192  0.10772461     0.95600
O1829       O  0.54785414  0.66567617  0.12048445    -0.77600
O1830       O  0.53315827  0.57745421  0.04537324    -0.82800
C1831       C  0.49630535  0.68628711  0.03558580     0.98200
C1832       C  0.99977574  0.56469458  0.03754720     1.04100
O1833       O  0.96254200  0.67302680  0.04498277    -0.78500
C1834       C  0.57229691  0.68425101  0.10646540     1.02400
Fe1835     Fe  0.74578764  0.87518657  0.13345923     1.65800
Fe1836     Fe  0.74420472  0.92934302  0.18459598     1.73200
Fe1837     Fe  0.74845301  0.82459164  0.18576511     1.54400
O1838       O  0.69847870  0.80028397  0.16796207    -0.82200
O1839       O  0.78566866  0.91104706  0.21029009    -0.80500
O1840       O  0.70776234  0.82380112  0.13164931    -0.84700
O1841       O  0.79847919  0.83878246  0.13186874    -0.79500
O1842       O  0.70695744  0.84457373  0.21117262    -0.81300
O1843       O  0.79395772  0.95250396  0.16591115    -0.84100
C1844       C  0.80867898  0.80718315  0.14381018     0.96700
C1845       C  0.68982398  0.79998719  0.14626835     1.04100
O1846       O  0.74625208  0.87638107  0.16793896    -1.13000
O1847       O  0.70270560  0.95537921  0.16116358    -0.75500
O1848       O  0.69313965  0.91126182  0.13178962    -0.79000
O1849       O  0.79024286  0.79727484  0.16277223    -0.79700
C1850       C  0.68409803  0.94433682  0.14254992     0.95600
O1851       O  0.78337078  0.92672235  0.13018550    -0.77600
O1852       O  0.69421219  0.91107821  0.20484337    -0.82800
C1853       C  0.80589896  0.87851360  0.21526944     0.98200
C1854       C  0.68667495  0.87736616  0.21551449     1.04100
O1855       O  0.79844576  0.84417023  0.20536487    -0.78500
C1856       C  0.80127671  0.95168059  0.14401600     1.02400
C1857       C  0.63717071  0.78106817  0.11626694    -0.20800
C1858       C  0.65793425  0.77082171  0.13724781    -0.07400
C1859       C  0.64932852  0.73228622  0.14817642     0.13500
C1860       C  0.62082291  0.70524624  0.13769556    -0.20900
C1861       C  0.60107503  0.71511498  0.11646626    -0.07400
C1862       C  0.60899963  0.75370160  0.10569493     0.13500
C1863       C  0.58719128  0.76665118  0.08343905    -0.24200
H1864       H  0.64318518  0.81067560  0.10795549     0.14800
H1865       H  0.61459648  0.67555388  0.14587789     0.14800
C1866       C  0.67094653  0.71838224  0.17032879    -0.24200
H1867       H  0.59542471  0.79875929  0.07822219     0.05000
H1868       H  0.55287198  0.76525721  0.08603464     0.08200
H1869       H  0.59637364  0.74596407  0.06878125     0.08200
H1870       H  0.66240596  0.73907129  0.18512062     0.08200
H1871       H  0.70526964  0.71856757  0.16762083     0.08200
H1872       H  0.66182065  0.68648113  0.17548209     0.05000
C1873       C  0.84461640  0.77338415  0.11033190    -0.20800
C1874       C  0.84189153  0.77956348  0.13468736    -0.07400
C1875       C  0.86943493  0.75780788  0.14965587     0.13500
C1876       C  0.89726283  0.72896817  0.13995878    -0.20900
C1877       C  0.89836481  0.72090138  0.11570373    -0.07400
C1878       C  0.87223267  0.74429233  0.10060497     0.13500
C1879       C  0.87325716  0.73939134  0.07425104    -0.24200
H1880       H  0.82386791  0.79041763  0.09883416     0.14800
H1881       H  0.91754727  0.71171087  0.15160167     0.14800
C1882       C  0.87048628  0.76532186  0.17579567    -0.24200
H1883       H  0.85303522  0.76245806  0.06534091     0.05000
H1884       H  0.86169702  0.70831272  0.06925891     0.08200
H1885       H  0.90557120  0.74381500  0.06761310     0.08200
H1886       H  0.84103651  0.75475754  0.18413398     0.08200
H1887       H  0.87516128  0.79878524  0.17922666     0.08200
H1888       H  0.89635904  0.74820109  0.18436547     0.05000
C1889       C  0.85379298  0.03156254  0.10506468    -0.20800
C1890       C  0.89654993  0.53757376  0.11849096    -0.07400
C1891       C  0.87514894  0.54428321  0.13990279     0.13500
C1892       C  0.84668973  0.51461420  0.14791741    -0.20900
C1893       C  0.83182578  0.98105745  0.13417582    -0.07400
C1894       C  0.82372761  0.00376473  0.11344709     0.13500
C1895       C  0.78281846  0.00020954  0.10058535    -0.24200
H1896       H  0.84718695  0.04926542  0.08931546     0.14800
H1897       H  0.82971772  0.52050974  0.16407138     0.14800
C1898       C  0.88063031  0.58343265  0.15395502    -0.24200
H1899       H  0.78085326  0.02235078  0.08568328     0.05000
H1900       H  0.75652493  0.00689925  0.11277022     0.08200
H1901       H  0.77931595  0.96864971  0.09326328     0.08200
H1902       H  0.87379055  0.61081332  0.14279575     0.08200
H1903       H  0.91299714  0.58537942  0.16067463     0.08200
H1904       H  0.85935669  0.58447945  0.16939193     0.05000
C1905       C  0.61845676  0.50867241  0.10101724    -0.20800
C1906       C  0.59628227  0.53340605  0.11701438    -0.07400
C1907       C  0.60262373  0.02860803  0.14138285     0.13500
C1908       C  0.63037053  0.99802249  0.14904529    -0.20900
C1909       C  0.65132339  0.97207496  0.13314370    -0.07400
C1910       C  0.64719475  0.47867567  0.10860920     0.13500
C1911       C  0.67068329  0.45425489  0.09027996    -0.24200
H1912       H  0.61352773  0.51312670  0.08236526     0.14800
H1913       H  0.63638146  0.99489598  0.16768831     0.14800
C1914       C  0.58309773  0.05673643  0.15949649    -0.24200
H1915       H  0.66229618  0.46394912  0.07217029     0.05000
H1916       H  0.66307221  0.42089589  0.09195447     0.08200
H1917       H  0.70476236  0.45897274  0.09239395     0.08200
H1918       H  0.54876823  0.05242254  0.15982839     0.08200
H1919       H  0.59072229  0.08947560  0.15538720     0.08200
H1920       H  0.59468457  0.05004639  0.17747002     0.05000
C1921       C  0.61507127  0.84596052  0.26657592    -0.20800
C1922       C  0.58883621  0.88066532  0.26820909    -0.07400
C1923       C  0.59448139  0.91368257  0.25206239     0.13500
C1924       C  0.62634087  0.91116731  0.23519049    -0.20900
C1925       C  0.65299986  0.87669300  0.23368639    -0.07400
C1926       C  0.64698878  0.84339667  0.24970495     0.13500
C1927       C  0.67392639  0.80505878  0.24965690    -0.24200
H1928       H  0.61073318  0.82050147  0.27872537     0.14800
H1929       H  0.63022188  0.93657558  0.22294086     0.14800
C1930       C  0.56664119  0.95137047  0.25181171    -0.24200
H1931       H  0.67043818  0.78835690  0.23276278     0.05000
H1932       H  0.66504253  0.78314234  0.26387362     0.08200
H1933       H  0.70705675  0.81363644  0.25245717     0.08200
H1934       H  0.53359716  0.94184243  0.24971770     0.08200
H1935       H  0.57435881  0.97263736  0.23707617     0.08200
H1936       H  0.57048396  0.96913584  0.26831560     0.05000
C1937       C  0.87555993  0.91153642  0.26637090    -0.20800
C1938       C  0.90463322  0.87905232  0.26693136    -0.07400
C1939       C  0.90129206  0.84686716  0.25013397     0.13500
C1940       C  0.86893528  0.84805128  0.23367678    -0.20900
C1941       C  0.83962886  0.88036910  0.23317497    -0.07400
C1942       C  0.84313165  0.91272449  0.24991175     0.13500
C1943       C  0.81269094  0.94830722  0.25115173    -0.24200
H1944       H  0.87797475  0.93627150  0.27913680     0.14800
H1945       H  0.86673237  0.82329852  0.22091970     0.14800
C1946       C  0.93205918  0.81156550  0.24877593    -0.24200
H1947       H  0.81462483  0.96711164  0.23485414     0.05000
H1948       H  0.81944651  0.96932286  0.26607649     0.08200
H1949       H  0.78051206  0.93636736  0.25364139     0.08200
H1950       H  0.96419920  0.82385006  0.24670650     0.08200
H1951       H  0.92587149  0.79099598  0.23357536     0.08200
H1952       H  0.92986637  0.79218913  0.26484199     0.05000
C1953       C  0.59040630  0.77472046  0.39047467    -0.20800
C1954       C  0.58679908  0.77957608  0.36602851    -0.07400
C1955       C  0.61440471  0.75740022  0.35113952     0.13500
C1956       C  0.64364068  0.73022249  0.36109187    -0.20900
C1957       C  0.64592180  0.72397701  0.38548976    -0.07400
C1958       C  0.61927525  0.74718626  0.40041616     0.13500
C1959       C  0.62120634  0.74384268  0.42684153    -0.24200
H1960       H  0.56962722  0.79181270  0.40196711     0.14800
H1961       H  0.66409465  0.71274236  0.34960254     0.14800
C1962       C  0.61404601  0.76253968  0.32479997    -0.24200
H1963       H  0.60046940  0.76673000  0.43556130     0.05000
H1964       H  0.65353558  0.74967973  0.43291482     0.08200
H1965       H  0.61085309  0.71272038  0.43265552     0.08200
H1966       H  0.61786332  0.79571184  0.32021188     0.08200
H1967       H  0.58439923  0.75063024  0.31747314     0.08200
H1968       H  0.63982283  0.74514613  0.31623266     0.05000
C1969       C  0.89152999  0.72383279  0.39515620    -0.20800
C1970       C  0.85192001  0.72042499  0.38484879    -0.07400
C1971       C  0.84234170  0.74549871  0.36504321     0.13500
C1972       C  0.87282933  0.77232643  0.35594030    -0.20900
C1973       C  0.91222449  0.77534100  0.36624795    -0.07400
C1974       C  0.92179093  0.75087649  0.38610652     0.13500
C1975       C  0.96439397  0.75204742  0.39727200    -0.24200
H1976       H  0.89925647  0.70452513  0.41012074     0.14800
H1977       H  0.86572112  0.79158117  0.34084621     0.14800
C1978       C  0.79987441  0.74534401  0.35372796    -0.24200
H1979       H  0.96715961  0.72926923  0.41181735     0.05000
H1980       H  0.97045738  0.78315679  0.40468626     0.08200
H1981       H  0.98867963  0.74465997  0.38395089     0.08200
H1982       H  0.77546285  0.75168705  0.36714439     0.08200
H1983       H  0.79396386  0.71507310  0.34524796     0.08200
H1984       H  0.79723766  0.76940715  0.33985217     0.05000
C1985       C  0.84512297  0.52993416  0.36045065    -0.20800
C1986       C  0.84214850  0.53595175  0.38481841    -0.07400
C1987       C  0.86485610  0.50954064  0.40002488     0.13500
C1988       C  0.89203366  0.48010147  0.39042445    -0.20900
C1989       C  0.90063924  0.97642078  0.36578622    -0.07400
C1990       C  0.87264073  0.99808687  0.35101516     0.13500
C1991       C  0.87108878  0.99087141  0.32485413    -0.24200
H1992       H  0.82431186  0.04402338  0.34950582     0.14800
H1993       H  0.91047903  0.46100341  0.40211477     0.14800
C1994       C  0.86012735  0.51128867  0.42635161    -0.24200
H1995       H  0.84479867  0.00776795  0.31654100     0.05000
H1996       H  0.86674107  0.95739810  0.32132100     0.08200
H1997       H  0.90019318  0.00192630  0.31633719     0.08200
H1998       H  0.82664368  0.50829291  0.43099513     0.08200
H1999       H  0.87276873  0.54076100  0.43324479     0.08200
H2000       H  0.87721254  0.48577657  0.43520434     0.05000
C2001       C  0.59176678  0.52194224  0.35613170    -0.20800
C2002       C  0.58232176  0.98054286  0.36889302    -0.07400
C2003       C  0.57637219  0.99920846  0.39110645     0.13500
C2004       C  0.64025282  0.50457915  0.39552781    -0.20900
C2005       C  0.64361204  0.54335049  0.38464549    -0.07400
C2006       C  0.61939620  0.55199736  0.36451209     0.13500
C2007       C  0.62118639  0.59344540  0.35228526    -0.24200
H2008       H  0.57252386  0.52917787  0.34105924     0.14800
H2009       H  0.60121263  0.04158753  0.41638616     0.14800
C2010       C  0.53749398  0.99182138  0.40555589    -0.24200
H2011       H  0.59816889  0.59563034  0.33780884     0.05000
H2012       H  0.65255939  0.59834527  0.34447685     0.08200
H2013       H  0.61422541  0.61854391  0.36500618     0.08200
H2014       H  0.53599408  0.95899592  0.41120828     0.08200
H2015       H  0.50941748  0.99963318  0.39507262     0.08200
H2016       H  0.53690070  0.01110241  0.42167823     0.05000
C2017       C  0.72040094  0.50232231  0.51848575    -0.20800
C2018       C  0.75875961  0.97293853  0.51923777    -0.07400
C2019       C  0.79317677  0.98178116  0.50427678     0.13500
C2020       C  0.78049173  0.50864500  0.48324254    -0.20900
C2021       C  0.74832638  0.53811776  0.48407415    -0.07400
C2022       C  0.71779051  0.53484501  0.50212274     0.13500
C2023       C  0.68292331  0.56586163  0.50486518    -0.24200
H2024       H  0.69717108  0.50017396  0.53230099     0.14800
H2025       H  0.81576572  0.01964087  0.47588891     0.14800
C2026       C  0.83359513  0.95790299  0.50539401    -0.24200
H2027       H  0.66371615  0.55967450  0.52077373     0.05000
H2028       H  0.66175937  0.56439799  0.48952124     0.08200
H2029       H  0.69606007  0.59746805  0.50655272     0.08200
H2030       H  0.82761941  0.92450449  0.50241505     0.08200
H2031       H  0.84850758  0.96249067  0.52275417     0.08200
H2032       H  0.85623184  0.96835960  0.49180144     0.05000
C2033       C  0.71731483  0.76294812  0.51581296    -0.20800
C2034       C  0.75448110  0.78560034  0.51828334    -0.07400
C2035       C  0.78859224  0.77649445  0.50320291     0.13500
C2036       C  0.78421666  0.74564984  0.48610736    -0.20900
C2037       C  0.74693704  0.72330389  0.48351706    -0.07400
C2038       C  0.71302297  0.73201842  0.49875439     0.13500
C2039       C  0.67253721  0.70835540  0.49776897    -0.24200
H2040       H  0.69125192  0.76934091  0.52743119     0.14800
H2041       H  0.81027519  0.73909151  0.47450815     0.14800
C2042       C  0.82951980  0.79939196  0.50443483    -0.24200
H2043       H  0.65063392  0.71784483  0.51194157     0.05000
H2044       H  0.67866080  0.67475877  0.49990641     0.08200
H2045       H  0.65674342  0.71421222  0.48077561     0.08200
H2046       H  0.84468204  0.79349287  0.52161091     0.11400
H2047       H  0.82417839  0.83307042  0.50200669     0.08200
H2048       H  0.85168843  0.78920065  0.49055642     0.05000
C2049       C  0.63988410  0.79176751  0.64001368    -0.20800
C2050       C  0.65171945  0.78826879  0.61637714    -0.07400
C2051       C  0.63707801  0.75450283  0.60307656     0.13500
C2052       C  0.60974438  0.72601498  0.61363107    -0.20900
C2053       C  0.59632036  0.73033405  0.63713961    -0.07400
C2054       C  0.61255126  0.76358567  0.65063491     0.13500
C2055       C  0.60141076  0.77061335  0.67612392    -0.24200
H2056       H  0.65149197  0.81756389  0.65021702     0.14800
H2057       H  0.59829346  0.70050907  0.60317566     0.14800
C2058       C  0.65079691  0.74767043  0.57800250    -0.24200
H2059       H  0.61813342  0.79756562  0.68363542     0.05000
H2060       H  0.61018831  0.74311271  0.68673089     0.08200
H2061       H  0.56753442  0.77705460  0.67791334     0.08200
H2062       H  0.68537232  0.74617800  0.57704253     0.08200
H2063       H  0.63933607  0.77318124  0.56667140     0.08200
H2064       H  0.63831020  0.71829930  0.57080398     0.05000
C2065       C  0.85627271  0.78012667  0.64139203    -0.20800
C2066       C  0.85005139  0.78171398  0.61705143    -0.07400
C2067       C  0.86974114  0.75202568  0.60253316     0.13500
C2068       C  0.89797998  0.72404960  0.61258927    -0.20900
C2069       C  0.90706229  0.72480043  0.63675895    -0.07400
C2070       C  0.88425983  0.75216329  0.65151622     0.13500
C2071       C  0.88874525  0.75270076  0.67791582    -0.24200
H2072       H  0.84032587  0.80217088  0.65259991     0.14800
H2073       H  0.91408195  0.70236260  0.60124265     0.14800
C2074       C  0.86085487  0.74904501  0.57657549    -0.24200
H2075       H  0.86577091  0.77372331  0.68638148     0.05000
H2076       H  0.92017897  0.76394553  0.68286086     0.08200
H2077       H  0.88336150  0.72121835  0.68513052     0.08200
H2078       H  0.87275600  0.77680761  0.56725825     0.08200
H2079       H  0.82674441  0.74603700  0.57371564     0.08200
H2080       H  0.87624882  0.72169314  0.56853781     0.05000
C2081       C  0.91335710  0.51966959  0.61132031    -0.20800
C2082       C  0.91272476  0.52667703  0.63568020    -0.07400
C2083       C  0.88899192  0.99691097  0.65327516     0.13500
C2084       C  0.86188455  0.96874352  0.64257669    -0.20900
C2085       C  0.85594134  0.96817087  0.61814781    -0.07400
C2086       C  0.88597360  0.49176031  0.60057827     0.13500
C2087       C  0.88930100  0.48624383  0.57430753    -0.24200
H2088       H  0.93636915  0.53540475  0.60054658     0.14800
H2089       H  0.84586775  0.94618444  0.65345204     0.14800
C2090       C  0.89284222  0.99543698  0.67968838    -0.24200
H2091       H  0.91286830  0.50725368  0.56635751     0.05000
H2092       H  0.85887130  0.49331759  0.56595445     0.08200
H2093       H  0.89907441  0.45414490  0.57011961     0.08200
H2094       H  0.88540030  0.02623928  0.68722984     0.08200
H2095       H  0.92481653  0.98583500  0.68472952     0.08200
H2096       H  0.87096729  0.97277552  0.68771316     0.05000
C2097       C  0.59736710  0.52060668  0.61241812    -0.20800
C2098       C  0.59643569  0.52738004  0.63673849    -0.07400
C2099       C  0.62517470  0.50606192  0.65119971     0.13500
C2100       C  0.65616387  0.98097483  0.64100064    -0.20900
C2101       C  0.65589710  0.97338988  0.61663032    -0.07400
C2102       C  0.62877112  0.99707620  0.60227213     0.13500
C2103       C  0.62871273  0.99384201  0.57582647    -0.24200
H2104       H  0.57544448  0.53695642  0.60130205     0.14800
H2105       H  0.67748783  0.96396782  0.65215152     0.14800
C2106       C  0.62758738  0.51358818  0.67728813    -0.24200
H2107       H  0.60769043  0.01703560  0.56763570     0.05000
H2108       H  0.61752929  0.96288640  0.57034753     0.08200
H2109       H  0.66062530  0.99944662  0.56888155     0.08200
H2110       H  0.59856722  0.50297759  0.68608592     0.08200
H2111       H  0.63233897  0.54705513  0.68058312     0.08200
H2112       H  0.65395767  0.49656232  0.68543261     0.05000
C2113       C  0.62207103  0.65169489  0.77308757    -0.20800
C2114       C  0.65911320  0.62985488  0.76860060    -0.07400
C2115       C  0.66327270  0.60746176  0.74733603     0.13500
C2116       C  0.62977525  0.60642672  0.73165028    -0.20900
C2117       C  0.59284420  0.62824218  0.73611113    -0.07400
C2118       C  0.58863015  0.65078970  0.75728977     0.13500
C2119       C  0.54894065  0.67264831  0.76441428    -0.24200
H2120       H  0.61868338  0.66861414  0.78941439     0.14800
H2121       H  0.63315419  0.58964580  0.71531016     0.14800
C2122       C  0.70295263  0.58599686  0.73980089    -0.24200
H2123       H  0.55483581  0.70639486  0.76574996     0.05000
H2124       H  0.53853232  0.66097704  0.78183806     0.08200
H2125       H  0.52279989  0.66756828  0.75212119     0.08200
H2126       H  0.72955626  0.59132375  0.75169885     0.08200
H2127       H  0.71262077  0.59774350  0.72225793     0.08200
H2128       H  0.69733447  0.55219899  0.73851244     0.05000
C2129       C  0.87068499  0.64487402  0.72910251    -0.20800
C2130       C  0.90898717  0.62661262  0.73478952    -0.07400
C2131       C  0.91451491  0.60823156  0.75712404     0.13500
C2132       C  0.88108821  0.60785099  0.77300847    -0.20900
C2133       C  0.84281832  0.62632973  0.76740831    -0.07400
C2134       C  0.83725014  0.64460245  0.74500826     0.13500
C2135       C  0.79634139  0.66255986  0.73680816    -0.24200
H2136       H  0.86650799  0.65860847  0.71186855     0.14800
H2137       H  0.88538782  0.59414861  0.79024540     0.14800
C2138       C  0.95554082  0.59047952  0.76528245    -0.24200
H2139       H  0.80027370  0.69606118  0.73309456     0.05000
H2140       H  0.77059028  0.65873953  0.74961979     0.08200
H2141       H  0.78660219  0.64680667  0.72040746     0.08200
H2142       H  0.96534752  0.60640855  0.78161552     0.08200
H2143       H  0.98116485  0.59426730  0.75236416     0.08200
H2144       H  0.95175229  0.55699376  0.76908358     0.05000
C2145       C  0.52817899  0.96958121  0.00040772    -0.20800
C2146       C  0.99397637  0.96709923  0.98480299    -0.07400
C2147       C  0.96158966  0.99700943  0.98617273     0.13500
C2148       C  0.97349617  0.53579367  0.00034075    -0.20900
C2149       C  0.99923472  0.53105649  0.02005144    -0.07400
C2150       C  0.52305841  0.49728940  0.02097237     0.13500
C2151       C  0.55110946  0.49037921  0.04182954    -0.24200
H2152       H  0.55103389  0.94486223  0.00048566     0.14800
H2153       H  0.95528734  0.56386974  0.99841898     0.14800
C2154       C  0.92479800  0.99703478  0.96972452    -0.24200
H2155       H  0.56602808  0.45936180  0.04140623     0.05000
H2156       H  0.53271231  0.49263299  0.05835219     0.08200
H2157       H  0.57647434  0.51367625  0.04189935     0.08200
H2158       H  0.90603793  0.96854800  0.97233047     0.08200
H2159       H  0.93587910  0.99903210  0.95125711     0.08200
H2160       H  0.90371313  0.02376059  0.97287338     0.05000
C2161       C  0.53266902  0.74427927  0.01544002    -0.20800
C2162       C  0.49664036  0.71987028  0.01765965    -0.07400
C2163       C  0.96475758  0.72172449  0.00099892     0.13500
C2164       C  0.96728582  0.75386026  0.98439900    -0.20900
C2165       C  0.00134362  0.78112348  0.98381768    -0.07400
C2166       C  0.53569133  0.77593625  0.99859415     0.13500
C2167       C  0.57484681  0.80176695  0.99789046    -0.24200
H2168       H  0.55865885  0.73877260  0.02714842     0.14800
H2169       H  0.94266044  0.75742978  0.97155381     0.14800
C2170       C  0.92822827  0.69242808  0.99992405    -0.24200
H2171       H  0.59676016  0.79321032  0.01216363     0.05000
H2172       H  0.56681027  0.83496914  0.00005442     0.08200
H2173       H  0.59151490  0.79705872  0.98098629     0.08200
H2174       H  0.90896130  0.69520804  0.01607759     0.08200
H2175       H  0.93962143  0.66014507  0.99802990     0.08200
H2176       H  0.90764561  0.69927032  0.98475392     0.05000
C2177       C  0.63986673  0.75504721  0.85219906    -0.20800
C2178       C  0.66138809  0.72962515  0.86809750    -0.07400
C2179       C  0.65273906  0.73327733  0.89250211     0.13500
C2180       C  0.62375155  0.76283902  0.90015488    -0.20900
C2181       C  0.60276657  0.78849866  0.88423887    -0.07400
C2182       C  0.61068691  0.78433721  0.85987114     0.13500
C2183       C  0.58998734  0.81164559  0.84180657    -0.24200
H2184       H  0.64612256  0.75222671  0.83354623     0.14800
H2185       H  0.61742562  0.76603215  0.91878656     0.14800
C2186       C  0.67449162  0.70734742  0.91082278    -0.24200
H2187       H  0.60209606  0.80569732  0.82381810     0.05000
H2188       H  0.59589048  0.84467363  0.84594350     0.08200
H2189       H  0.55592319  0.80566393  0.84152401     0.08200
H2190       H  0.70876920  0.71168057  0.90946280     0.08200
H2191       H  0.66645940  0.67423430  0.90845607     0.08200
H2192       H  0.66493278  0.71601761  0.92893294     0.05000
C2193       C  0.90146972  0.74881700  0.89139515    -0.20800
C2194       C  0.90289265  0.78897018  0.88213464    -0.07400
C2195       C  0.87667167  0.79975419  0.86319108     0.13500
C2196       C  0.84878521  0.77032842  0.85440782    -0.20900
C2197       C  0.84624485  0.73043858  0.86411422    -0.07400
C2198       C  0.87374391  0.71919672  0.88252238     0.13500
C2199       C  0.87487526  0.67600320  0.89260512    -0.24200
H2200       H  0.92212357  0.74068106  0.90571783     0.14800
H2201       H  0.82781220  0.77903723  0.84035092     0.14800
C2202       C  0.87655320  0.84276678  0.85286601    -0.24200
H2203       H  0.90073295  0.67211141  0.90534831     0.05000
H2204       H  0.87961558  0.65318152  0.87828463     0.08200
H2205       H  0.84541728  0.66915629  0.90211559     0.08200
H2206       H  0.90722306  0.84938088  0.84460107     0.08200
H2207       H  0.87011162  0.86584963  0.86684511     0.08200
H2208       H  0.85236077  0.84638837  0.83910640     0.05000
C2209       C  0.87268775  0.00943634  0.85366189    -0.20800
C2210       C  0.84419298  0.52967062  0.86815780    -0.07400
C2211       C  0.84889512  0.52273663  0.89261119     0.13500
C2212       C  0.87775608  0.49318299  0.90042482    -0.20900
C2213       C  0.90479427  0.96981765  0.88521935    -0.07400
C2214       C  0.90208602  0.98000655  0.86101671     0.13500
C2215       C  0.92866035  0.95906286  0.84261593    -0.24200
H2216       H  0.87009474  0.01674276  0.83512434     0.14800
H2217       H  0.88088814  0.48752216  0.91911007     0.14800
C2218       C  0.82266695  0.54501221  0.91066962    -0.24200
H2219       H  0.92046345  0.96932533  0.82458099     0.05000
H2220       H  0.92413965  0.92507893  0.84349454     0.08200
H2221       H  0.96201678  0.96667348  0.84538882     0.08200
H2222       H  0.78904502  0.53991876  0.90706937     0.08200
H2223       H  0.82973593  0.57860610  0.91031014     0.08200
H2224       H  0.82901486  0.53380472  0.92876321     0.05000
C2225       C  0.60151441  0.48302352  0.86450083    -0.20800
C2226       C  0.60505787  0.97135884  0.88940421    -0.07400
C2227       C  0.63792159  0.98773667  0.90321326     0.13500
C2228       C  0.66580575  0.01588671  0.89299900    -0.20900
C2229       C  0.66008714  0.53025135  0.86781305    -0.07400
C2230       C  0.62911703  0.51107110  0.85392622     0.13500
C2231       C  0.62425565  0.51997817  0.82803175    -0.24200
H2232       H  0.57846985  0.46805200  0.85356649     0.14800
H2233       H  0.69172472  0.02724041  0.90331088     0.14800
C2234       C  0.64486568  0.97561578  0.92852175    -0.24200
H2235       H  0.59629018  0.50462286  0.82061121     0.05000
H2236       H  0.65168168  0.50822578  0.81814026     0.08200
H2237       H  0.62071330  0.55378325  0.82514667     0.08200
H2238       H  0.65077987  0.94185703  0.92983864     0.08200
H2239       H  0.61722942  0.98426281  0.93926682     0.08200
H2240       H  0.67222455  0.99162220  0.93621170     0.05000
loop_ 
_geom_bond_atom_site_label_1 
_geom_bond_atom_site_label_2 
_geom_bond_distance 
_geom_bond_site_symmetry_2 
_ccdc_geom_bond_type 
Fe1           O7   2.053       .  S
Fe1           O6   2.045       .  S
Fe1        O1137   2.046   1_455  S
Fe1        O1134   2.057   1_455  S
Fe1        O1132   1.961       .  S
Fe2           O5   2.059       .  S
Fe2           O9   2.083       .  S
Fe2          O13   2.057       .  S
Fe2          O18   2.080       .  S
Fe2          O12   1.957       .  S
Fe3          O21   2.067       .  S
Fe3           O8   2.052       .  S
Fe3          O15   2.059       .  S
Fe3           O4   2.071       .  S
Fe3        O1132   1.966       .  S
O4           C11   1.271       .  A
O5           C19   1.268       .  A
O6           C11   1.265       .  A
O7           C10   1.268       .  A
O8         C1140   1.266       .  A
O9           C22   1.274       .  A
C10          O15   1.266       .  A
C10         C546   1.491       .  S
C11         C501   1.480       .  S
O12       Fe1121   1.959       .  S
O12       Fe1123   1.957       .  S
O13          C16   1.267       .  A
O14       Fe1121   2.062       .  S
O14          C16   1.267       .  A
C16         C514   1.468       .  S
O17       Fe1121   2.041       .  S
O17          C22   1.265       .  A
O18          C20   1.273       .  A
C19        O1141   1.271       .  A
C19         C466   1.484       .  S
C20        O1128   1.266       .  A
C20         C485   1.488       .  S
O21        C1139   1.270   1_455  A
C22         C533   1.482       .  S
Fe23         O39   2.050       .  S
Fe23         O29   2.058       .  S
Fe23         O36   2.056       .  S
Fe23         O28   2.048       .  S
Fe23         O34   1.975       .  S
Fe24         O27   2.058       .  S
Fe24         O31   2.064       .  S
Fe24         O35   2.056       .  S
Fe24         O40   2.066       .  S
Fe24         O34   1.974       .  S
Fe25         O43   2.064       .  S
Fe25         O30   2.063       .  S
Fe25         O37   2.063       .  S
Fe25         O26   2.062       .  S
Fe25         O34   1.973       .  S
O26          C33   1.268       .  A
O27          C41   1.268       .  A
O28          C33   1.265       .  A
O29          C32   1.268       .  A
O30          C42   1.269       .  A
O31          C44   1.270       .  A
C32          O37   1.269       .  A
C32         C549   1.484       .  S
C33         C530   1.476       .  S
O35          C38   1.268       .  A
O36          C38   1.266       .  A
C38         C517   1.478       .  S
O39          C44   1.265       .  A
O40          C42   1.269       .  A
C41          O43   1.268       .  A
C41         C434   1.472       .  S
C42         C453   1.477       .  S
C44         C498   1.483       .  S
Fe45         O61   2.063       .  S
Fe45         O51   2.064       .  S
Fe45         O58   2.061       .  S
Fe45         O50   2.062       .  S
Fe45         O56   1.976       .  S
Fe46         O49   2.053       .  S
Fe46         O53   2.068       .  S
Fe46         O57   2.054       .  S
Fe46         O62   2.067       .  S
Fe46         O56   1.977       .  S
Fe47         O65   2.057       .  S
Fe47         O52   2.053       .  S
Fe47         O59   2.056       .  S
Fe47         O48   2.057       .  S
Fe47         O56   1.977       .  S
O48          C55   1.266       .  A
O49          C63   1.267       .  A
O50          C55   1.269       .  A
O51          C54   1.270       .  A
O52          C64   1.265       .  A
O53          C66   1.268       .  A
C54          O59   1.266       .  A
C54         C386   1.495       .  S
C55         C405   1.493       .  S
O57          C60   1.266       .  A
O58          C60   1.269       .  A
C60         C421   1.486       .  S
O61          C66   1.269       .  A
O62          C64   1.270       .  A
C63          O65   1.267       .  A
C63         C354   1.476       .  S
C64         C338   1.489       .  S
C66         C370   1.493       .  S
Fe67         O80   2.056       .  S
Fe67         O72   2.065       .  S
Fe67       O1203   2.060   1_455  S
Fe67       O1193   2.059   1_455  S
Fe67         O78   1.975       .  S
Fe68         O79   2.068       .  S
Fe68         O84   2.052       .  S
Fe68       O1191   2.065   1_455  S
Fe68       O1195   2.058   1_455  S
Fe68         O78   1.979       .  S
Fe69         O74   2.069       .  S
Fe69         O70   2.063       .  S
Fe69       O1207   2.057   1_455  S
Fe69       O1201   2.067   1_455  S
Fe69         O78   1.976       .  S
O70          C77   1.268       .  A
O71       Fe1188   2.071       .  S
O71          C85   1.270       .  A
O72          C77   1.270       .  A
O73       Fe1187   2.051       .  S
O73          C76   1.266       .  A
O74          C86   1.269       .  A
O75       Fe1188   2.062       .  S
O75          C88   1.267       .  A
C76          O81   1.268       .  A
C76         C389   1.477       .  S
C77         C373   1.496       .  S
O79          C82   1.268       .  A
O80          C82   1.267       .  A
O81       Fe1189   2.067       .  S
C82         C418   1.483       .  S
O83       Fe1187   2.062       .  S
O83          C88   1.269       .  A
O84          C86   1.267       .  A
C85          O87   1.267       .  A
C85         C450   1.475       .  S
C86         C437   1.472       .  S
O87       Fe1189   2.059       .  S
C88         C402   1.496       .  S
Fe89        O105   2.069       .  S
Fe89         O95   2.050       .  S
Fe89        O102   2.052       .  S
Fe89         O94   2.062       .  S
Fe89        O100   1.971       .  S
Fe90         O93   2.060       .  S
Fe90         O97   2.065       .  S
Fe90        O101   2.059       .  S
Fe90        O106   2.059       .  S
Fe90        O100   1.967       .  S
Fe91        O109   2.070       .  S
Fe91         O96   2.053       .  S
Fe91        O103   2.057       .  S
Fe91         O92   2.071       .  S
Fe91        O100   1.971       .  S
O92          C99   1.271       .  A
O93         C107   1.270       .  A
O94          C99   1.271       .  A
O95          C98   1.263       .  A
O96         C108   1.266       .  A
O97         C110   1.269       .  A
C98         O103   1.266       .  A
C98         C325   1.468       .  S
C99         C277   1.486       .  S
O101        C104   1.267       .  A
O102        C104   1.263       .  A
C104        C290   1.479       .  S
O105        C110   1.272       .  A
O106        C108   1.268       .  A
C107        O109   1.269       .  A
C107        C341   1.494       .  S
C108        C357   1.473       .  S
C110        C306   1.489       .  S
Fe111       O124   2.058       .  S
Fe111       O116   2.062       .  S
Fe111      O1247   2.056       .  S
Fe111      O1237   2.063       .  S
Fe111       O122   1.973       .  S
Fe112       O123   2.063       .  S
Fe112       O128   2.072       .  S
Fe112      O1235   2.063       .  S
Fe112      O1239   2.066       .  S
Fe112       O122   1.968       .  S
Fe113       O118   2.068       .  S
Fe113       O114   2.066       .  S
Fe113      O1251   2.069       .  S
Fe113      O1245   2.067       .  S
Fe113       O122   1.965       .  S
O114        C121   1.269       .  A
O115      Fe1232   2.062   1_455  S
O115        C129   1.270       .  A
O116        C121   1.269       .  A
O117      Fe1231   2.053   1_455  S
O117        C120   1.264       .  A
O118        C130   1.268       .  A
O119      Fe1232   2.070   1_455  S
O119        C132   1.270       .  A
C120        O125   1.269       .  A
C120        C322   1.474       .  S
C121        C309   1.486       .  S
O123        C126   1.271       .  A
O124        C126   1.266       .  A
O125      Fe1233   2.067   1_455  S
C126        C293   1.490       .  S
O127      Fe1231   2.062   1_455  S
O127        C132   1.270       .  A
O128        C130   1.269       .  A
C129        O131   1.269       .  A
C129        C242   1.493       .  S
C130        C258   1.479       .  S
O131      Fe1233   2.068   1_455  S
C132        C274   1.485       .  S
Fe133       O139   2.048       .  S
Fe133       O138   2.055       .  S
Fe133      O1269   2.053       .  S
Fe133      O1266   2.044       .  S
Fe133      O1264   1.969       .  S
Fe134       O137   2.068       .  S
Fe134       O141   2.059       .  S
Fe134       O145   2.070       .  S
Fe134       O150   2.055       .  S
Fe134       O144   1.970   1_455  S
Fe135       O153   2.051       .  S
Fe135       O140   2.066       .  S
Fe135       O147   2.069       .  S
Fe135       O136   2.051       .  S
Fe135      O1264   1.966       .  S
O136        C143   1.267       .  A
O137        C151   1.271   1_455  A
O138        C143   1.264       .  A
O139        C142   1.267       .  A
O140        C152   1.269       .  A
O141        C154   1.266       .  A
C142        O147   1.269       .  A
C142        C197   1.481       .  S
C143        C210   1.479       .  S
O144      Fe1253   1.969       .  S
O144      Fe1255   1.969       .  S
O145        C148   1.272       .  A
O146      Fe1253   2.046   1_455  S
O146        C148   1.266       .  A
C148        C226   1.479       .  S
O149      Fe1253   2.059   1_455  S
O149        C154   1.266       .  A
O150       C1272   1.266   1_455  A
C151       O1273   1.266       .  A
C151        C482   1.490       .  S
C152       O1270   1.267       .  A
C152        C469   1.488       .  S
O153       C1271   1.266       .  A
C154        C181   1.486       .  S
Fe155       O171   2.066       .  S
Fe155       O161   2.056       .  S
Fe155       O168   2.058       .  S
Fe155       O160   2.063       .  S
Fe155       O166   1.969       .  S
Fe156       O159   2.076       .  S
Fe156       O163   2.061       .  S
Fe156       O167   2.076       .  S
Fe156       O172   2.062       .  S
Fe156       O166   1.965       .  S
Fe157       O175   2.068       .  S
Fe157       O162   2.069       .  S
Fe157       O169   2.065       .  S
Fe157       O158   2.063       .  S
Fe157       O166   1.966       .  S
O158        C165   1.267       .  A
O159        C173   1.270       .  A
O160        C165   1.269       .  A
O161        C164   1.269       .  A
O162        C174   1.269       .  A
O163        C176   1.270       .  A
C164        O169   1.269       .  A
C164        C194   1.482       .  S
C165        C178   1.496       .  S
O167        C170   1.273       .  A
O168        C170   1.267       .  A
C170        C229   1.494       .  S
O171        C176   1.267       .  A
O172        C174   1.271       .  A
C173        O175   1.269       .  A
C173        C261   1.479       .  S
C174        C245   1.494       .  S
C176        C213   1.491       .  S
C177        C178   1.411       .  A
C177        C182   1.403       .  A
C177        H184   1.084       .  S
C178        C179   1.421       .  A
C179        C180   1.404       .  A
C179        C186   1.509       .  S
C180        C181   1.406       .  A
C180        H185   1.084       .  S
C181        C182   1.414       .  A
C182        C183   1.510       .  S
C183        H187   1.111       .  S
C183        H188   1.111       .  S
C183        H189   1.109       .  S
C186        H190   1.110       .  S
C186        H191   1.110       .  S
C186        H192   1.111       .  S
C193        C194   1.406       .  A
C193        C198   1.403       .  A
C193        H200   1.084       .  S
C194        C195   1.416       .  A
C195        C196   1.400       .  A
C195        C202   1.510       .  S
C196        C197   1.405       .  A
C196        H201   1.084       .  S
C197        C198   1.416       .  A
C198        C199   1.509       .  S
C199        H203   1.111       .  S
C199        H204   1.109       .  S
C199        H205   1.111       .  S
C202        H206   1.109       .  S
C202        H207   1.110       .  S
C202        H208   1.111       .  S
C209        C214   1.406       .  A
C209        C770   1.402       .  A
C209        H216   1.084       .  S
C210        C211   1.420       .  A
C210        C769   1.404       .  A
C211        C212   1.402   1_545  A
C211        C218   1.509       .  S
C212        C773   1.400       .  A
C212        H217   1.085       .  S
C213        C214   1.423       .  A
C213        C772   1.406       .  A
C214        C215   1.509       .  S
C215        H219   1.111       .  S
C215        H220   1.110       .  S
C215        H221   1.110       .  S
C218        H222   1.109       .  S
C218        H223   1.111       .  S
C218        H224   1.111   1_545  S
C225        C226   1.404       .  A
C225        C230   1.402   1_545  A
C225        H232   1.083       .  S
C226        C787   1.417       .  A
C227        C228   1.403       .  A
C227        C786   1.415       .  A
C227        C234   1.509       .  S
C228        C229   1.407       .  A
C228        H233   1.083       .  S
C229        C790   1.422       .  A
C230        C789   1.417       .  A
C230        C231   1.508       .  S
C231        H235   1.111       .  S
C231        H236   1.110       .  S
C231        H237   1.109       .  S
C234        H238   1.109       .  S
C234        H239   1.111       .  S
C234        H240   1.111       .  S
C241        C242   1.406       .  A
C241        C246   1.404       .  A
C241        H248   1.082       .  S
C242        C243   1.420       .  A
C243        C244   1.404       .  A
C243        C250   1.509       .  S
C244        C245   1.406       .  A
C244        H249   1.083       .  S
C245        C246   1.421       .  A
C246        C247   1.509       .  S
C247        H251   1.110       .  S
C247        H252   1.111       .  S
C247        H253   1.111       .  S
C250        H254   1.111       .  S
C250        H255   1.111       .  S
C250        H256   1.110       .  S
C257        C258   1.402       .  A
C257        C262   1.404       .  A
C257        H264   1.084       .  S
C258        C259   1.417       .  A
C259        C260   1.406       .  A
C259        C266   1.509       .  S
C260        C261   1.403       .  A
C260        H265   1.084       .  S
C261        C262   1.417       .  A
C262        C263   1.509       .  S
C263        H267   1.110       .  S
C263        H268   1.111       .  S
C263        H269   1.107       .  S
C266        H270   1.107       .  S
C266        H271   1.111       .  S
C266        H272   1.110       .  S
C273        C274   1.405       .  A
C273        C278   1.404       .  A
C273        H280   1.084       .  S
C274        C275   1.417       .  A
C275        C276   1.402       .  A
C275        C282   1.508       .  S
C276        C277   1.404       .  A
C276        H281   1.084       .  S
C277        C278   1.418       .  A
C278        C279   1.509       .  S
C279        H283   1.111       .  S
C279        H284   1.111       .  S
C279        H285   1.109       .  S
C282        H286   1.110       .  S
C282        H287   1.109       .  S
C282        H288   1.111       .  S
C289        C290   1.400       .  A
C289        C294   1.402       .  A
C289        H296   1.085       .  S
C290        C291   1.416       .  A
C291        C292   1.401       .  A
C291        C298   1.510       .  S
C292        C293   1.406       .  A
C292        H297   1.084       .  S
C293        C294   1.424       .  A
C294        C295   1.510       .  S
C295        H299   1.111       .  S
C295        H300   1.110       .  S
C295        H301   1.110       .  S
C298        H302   1.109       .  S
C298        H303   1.111       .  S
C298        H304   1.111       .  S
C305        C306   1.406       .  A
C305        C870   1.404   1_545  A
C305        H872   1.084       .  S
C306        C307   1.421       .  A
C307        C308   1.402   1_545  A
C307        C314   1.509       .  S
C308        C869   1.403       .  A
C308        H313   1.084       .  S
C309        C310   1.418       .  A
C309        C868   1.405       .  A
C310        C865   1.403       .  A
C310        C311   1.509       .  S
C311        H315   1.111       .  S
C311        H316   1.110       .  S
C311        H317   1.109       .  S
H312        C865   1.084       .  S
C314        H318   1.110       .  S
C314        H319   1.109       .  S
C314        H320   1.111   1_545  S
C321        C326   1.400       .  A
C321        C882   1.405   1_545  A
C321        H328   1.084       .  S
C322        C323   1.415       .  A
C322        C881   1.398       .  A
C323        C884   1.403       .  A
C323        C330   1.509       .  S
C324        C325   1.397       .  A
C324        C883   1.401   1_545  A
C324        H889   1.085       .  S
C325        C326   1.413       .  A
C326        C327   1.510       .  S
C327        H331   1.111       .  S
C327        H332   1.109       .  S
C327        H333   1.111       .  S
H329        C884   1.084       .  S
C330        H334   1.109       .  S
C330        H335   1.111       .  S
C330        H336   1.111       .  S
C337        C342   1.404   1_565  A
C337        C898   1.405       .  A
C337        H344   1.084       .  S
C338        C339   1.420       .  A
C338        C897   1.405       .  A
C339        C900   1.402       .  A
C339        C346   1.510       .  S
C340        C341   1.406       .  A
C340        C899   1.403   1_545  A
C340        H905   1.083       .  S
C341        C342   1.420       .  A
C342        C343   1.508       .  S
C343        H347   1.111       .  S
C343        H348   1.110       .  S
C343        H349   1.108       .  S
H345        C900   1.083       .  S
C346        H350   1.109       .  S
C346        H351   1.110       .  S
C346        H352   1.111       .  S
C353        C354   1.402       .  A
C353        C358   1.399       .  A
C353        H360   1.084       .  S
C354        C355   1.416       .  A
C355        C356   1.401       .  A
C355        C362   1.508       .  S
C356        C357   1.402       .  A
C356        H361   1.085       .  S
C357        C358   1.414       .  A
C358        C359   1.507       .  S
C359        H363   1.111       .  S
C359        H364   1.109       .  S
C359        H365   1.109       .  S
C362        H366   1.109       .  S
C362        H367   1.110       .  S
C362        H368   1.111       .  S
C369        C370   1.407       .  A
C369        C374   1.405       .  A
C369        H376   1.084       .  S
C370        C371   1.417       .  A
C371        C372   1.404       .  A
C371        C378   1.508       .  S
C372        C373   1.409       .  A
C372        H377   1.084       .  S
C373        C374   1.420       .  A
C374        C375   1.509       .  S
C375        H379   1.111       .  S
C375        H380   1.111       .  S
C375        H381   1.110       .  S
C378        H382   1.110       .  S
C378        H383   1.109       .  S
C378        H384   1.111       .  S
C385        C386   1.411       .  A
C385        C390   1.403       .  A
C385        H392   1.083       .  S
C386        C387   1.424       .  A
C387        C388   1.402       .  A
C387        C394   1.510       .  S
C388        C389   1.401       .  A
C388        H393   1.085       .  S
C389        C390   1.410       .  A
C390        C391   1.508       .  S
C391        H395   1.111       .  S
C391        H396   1.109       .  S
C391        H397   1.110       .  S
C394        H398   1.110       .  S
C394        H399   1.110       .  S
C394        H400   1.111       .  S
C401        C402   1.410       .  A
C401        C406   1.404       .  A
C401        H408   1.083       .  S
C402        C963   1.422   1_545  A
C403        C404   1.403       .  A
C403        C962   1.417       .  A
C403        C410   1.510       .  S
C404        C405   1.408       .  A
C404        H409   1.083       .  S
C405        C966   1.420       .  A
C406        C965   1.415   1_545  A
C406        C407   1.509       .  S
C407        H411   1.111       .  S
C407        H412   1.111       .  S
C407        H413   1.109   1_545  S
C410        H414   1.111       .  S
C410        H415   1.109       .  S
C410        H416   1.111       .  S
C417        C418   1.402       .  A
C417        C982   1.402   1_545  A
C417        H424   1.084       .  S
C418        C419   1.414       .  A
C419        C980   1.405   1_545  A
C419        C426   1.508       .  S
C420        C421   1.406       .  A
C420        C979   1.402       .  A
C420        H425   1.084       .  S
C421        C422   1.419       .  A
C422        C977   1.402       .  A
C422        C423   1.510       .  S
C423        H427   1.111       .  S
C423        H428   1.109       .  S
C423        H429   1.110       .  S
C426        H430   1.109       .  S
C426        H431   1.110       .  S
C426        H432   1.111       .  S
C433        C434   1.403       .  A
C433        C438   1.402       .  A
C433        H440   1.085       .  S
C434        C435   1.416       .  A
C435        C436   1.400       .  A
C435        C442   1.510       .  S
C436        C437   1.401       .  A
C436        H441   1.083       .  S
C437        C438   1.416       .  A
C438        C439   1.509       .  S
C439        H443   1.110       .  S
C439        H444   1.111       .  S
C439        H445   1.107       .  S
C442        H446   1.106       .  S
C442        H447   1.111       .  S
C442        H448   1.110       .  S
C449        C450   1.402       .  A
C449        C454   1.403       .  A
C449        H456   1.084       .  S
C450        C451   1.415       .  A
C451        C452   1.402       .  A
C451        C458   1.509       .  S
C452        C453   1.403       .  A
C452        H457   1.085       .  S
C453        C454   1.417       .  A
C454        C455   1.509       .  S
C455        H459   1.110       .  S
C455        H460   1.106       .  S
C455        H461   1.111       .  S
C458        H462   1.111       .  S
C458        H463   1.107       .  S
C458        H464   1.110       .  S
C465       C1586   1.405   1_454  A
C465       C1030   1.402       .  A
C465        H472   1.084       .  S
C466        C467   1.417       .  A
C466       C1585   1.405   1_556  A
C467       C1028   1.404       .  A
C467        C474   1.509       .  S
C468        C469   1.406       .  A
C468       C1027   1.404   1_554  A
C468        H473   1.084       .  S
C469       C1590   1.417       .  A
C470       C1025   1.401   1_545  A
C470       C1589   1.418   1_455  A
C470        C471   1.509       .  S
C471        H475   1.111   1_545  S
C471        H476   1.110   1_545  S
C471        H477   1.110       .  S
C474        H478   1.110       .  S
C474        H479   1.111       .  S
C474        H480   1.111       .  S
C481        C482   1.405   1_455  A
C481        C486   1.403   1_554  A
C481        H488   1.084       .  S
C482       C1603   1.420       .  A
C483        C484   1.404   1_554  A
C483       C1602   1.421       .  A
C483        C490   1.510       .  S
C484        C485   1.404       .  A
C484        H489   1.084       .  S
C485       C1606   1.419       .  A
C486       C1605   1.419       .  A
C486        C487   1.509       .  S
C487        H491   1.111   1_556  S
C487        H492   1.110       .  S
C487        H493   1.110       .  S
C490        H494   1.110       .  S
C490        H495   1.110       .  S
C490        H496   1.111   1_554  S
C497        C498   1.404       .  A
C497        C502   1.400       .  A
C497        H504   1.084       .  S
C498        C499   1.420       .  A
C499        C500   1.402       .  A
C499        C506   1.509       .  S
C500        C501   1.403       .  A
C500        H505   1.084       .  S
C501        C502   1.417       .  A
C502        C503   1.510       .  S
C503        H507   1.111       .  S
C503        H508   1.111       .  S
C503        H509   1.109       .  S
C506        H510   1.111       .  S
C506        H511   1.110       .  S
C506        H512   1.111       .  S
C513        C514   1.400       .  A
C513        C518   1.403       .  A
C513        H520   1.084       .  S
C514        C515   1.412       .  A
C515        C516   1.399       .  A
C515        C522   1.509       .  S
C516        C517   1.404       .  A
C516        H521   1.084       .  S
C517        C518   1.419       .  A
C518        C519   1.509       .  S
C519        H523   1.111       .  S
C519        H524   1.111       .  S
C519        H525   1.109       .  S
C522        H526   1.109       .  S
C522        H527   1.111       .  S
C522        H528   1.111       .  S
C529        C534   1.402       .  A
C529       C1090   1.401       .  A
C529        H536   1.085       .  S
C530        C531   1.416       .  A
C530       C1089   1.402       .  A
C531        C532   1.399   1_545  A
C531        C538   1.509       .  S
C532       C1093   1.403       .  A
C532        H537   1.084       .  S
C533        C534   1.421       .  A
C533       C1092   1.403       .  A
C534        C535   1.509       .  S
C535        H539   1.111       .  S
C535        H540   1.109       .  S
C535        H541   1.110       .  S
C538        H542   1.111       .  S
C538        H543   1.109       .  S
C538        H544   1.111       .  S
C545        C550   1.401   1_565  A
C545       C1106   1.409       .  A
C545        H552   1.083       .  S
C546        C547   1.418       .  A
C546       C1105   1.408       .  A
C547        C548   1.403       .  A
C547        C554   1.509       .  S
C548       C1109   1.409       .  A
C548        H553   1.084       .  S
C549        C550   1.413       .  A
C549       C1108   1.406       .  A
C550        C551   1.509       .  S
C551        H555   1.111       .  S
C551        H556   1.109       .  S
C551        H557   1.111       .  S
C554        H558   1.110       .  S
C554        H559   1.110       .  S
C554        H560   1.111       .  S
Fe561      O1697   2.045   1_455  S
Fe561       O567   2.061       .  S
Fe561      O1694   2.065   1_455  S
Fe561       O566   2.042       .  S
Fe561      O1692   1.959       .  S
Fe562       O565   2.060       .  S
Fe562       O569   2.080       .  S
Fe562       O573   2.059       .  S
Fe562       O578   2.079       .  S
Fe562       O572   1.955       .  S
Fe563       O581   2.070       .  S
Fe563       O568   2.055       .  S
Fe563       O575   2.059       .  S
Fe563       O564   2.081       .  S
Fe563      O1692   1.960       .  S
O564        C571   1.274       .  A
O565        C579   1.268       .  A
O566        C571   1.266       .  A
O567        C570   1.268       .  A
O568       C1700   1.267       .  A
O569        C582   1.273       .  A
C570        O575   1.265       .  A
C570       C1106   1.494       .  S
C571       C1061   1.479       .  S
O572      Fe1681   1.958       .  S
O572      Fe1683   1.954       .  S
O573        C576   1.268       .  A
O574      Fe1681   2.067       .  S
O574        C576   1.268       .  A
C576       C1074   1.473       .  S
O577      Fe1681   2.041       .  S
O577        C582   1.264       .  A
O578        C580   1.272       .  A
C579       O1701   1.272       .  A
C579       C1026   1.491       .  S
C580       O1688   1.266       .  A
C580       C1045   1.486       .  S
O581       C1699   1.272   1_455  A
C582       C1093   1.481       .  S
Fe583       O599   2.046       .  S
Fe583       O589   2.060       .  S
Fe583       O596   2.062       .  S
Fe583       O588   2.041       .  S
Fe583       O594   1.968       .  S
Fe584       O587   2.060       .  S
Fe584       O591   2.070       .  S
Fe584       O595   2.058       .  S
Fe584       O600   2.066       .  S
Fe584       O594   1.968       .  S
Fe585       O603   2.068       .  S
Fe585       O590   2.051       .  S
Fe585       O597   2.053       .  S
Fe585       O586   2.073       .  S
Fe585       O594   1.967       .  S
O586        C593   1.271       .  A
O587        C601   1.269       .  A
O588        C593   1.264       .  A
O589        C592   1.268       .  A
O590        C602   1.267       .  A
O591        C604   1.271       .  A
C592        O597   1.266       .  A
C592       C1109   1.490       .  S
C593       C1090   1.476       .  S
O595        C598   1.269       .  A
O596        C598   1.267       .  A
C598       C1077   1.482       .  S
O599        C604   1.264       .  A
O600        C602   1.269       .  A
C601        O603   1.270       .  A
C601        C994   1.477       .  S
C602       C1013   1.471       .  S
C604       C1058   1.484       .  S
Fe605       O621   2.059       .  S
Fe605       O611   2.055       .  S
Fe605       O618   2.060       .  S
Fe605       O610   2.059       .  S
Fe605       O616   1.976       .  S
Fe606       O609   2.060       .  S
Fe606       O613   2.063       .  S
Fe606       O617   2.064       .  S
Fe606       O622   2.063       .  S
Fe606       O616   1.973       .  S
Fe607       O625   2.059       .  S
Fe607       O612   2.063       .  S
Fe607       O619   2.062       .  S
Fe607       O608   2.061       .  S
Fe607       O616   1.978       .  S
O608        C615   1.266       .  A
O609        C623   1.269       .  A
O610        C615   1.267       .  A
O611        C614   1.269       .  A
O612        C624   1.268       .  A
O613        C626   1.267       .  A
C614        O619   1.268       .  A
C614        C946   1.482       .  S
C615        C965   1.486       .  S
O617        C620   1.268       .  A
O618        C620   1.269       .  A
C620        C981   1.494       .  S
O621        C626   1.267       .  A
O622        C624   1.270       .  A
C623        O625   1.266       .  A
C623        C914   1.490       .  S
C624        C898   1.490       .  S
C626        C930   1.483       .  S
Fe627      O1763   2.056   1_455  S
Fe627      O1753   2.060   1_455  S
Fe627       O640   2.059       .  S
Fe627       O632   2.065       .  S
Fe627       O638   1.978       .  S
Fe628      O1751   2.058   1_455  S
Fe628      O1755   2.064   1_455  S
Fe628       O639   2.057       .  S
Fe628       O644   2.066       .  S
Fe628       O638   1.977       .  S
Fe629      O1767   2.055   1_455  S
Fe629       O634   2.055       .  S
Fe629      O1761   2.048   1_455  S
Fe629       O630   2.056       .  S
Fe629       O638   1.974       .  S
O630        C637   1.266       .  A
O631      Fe1748   2.059       .  S
O631        C645   1.268       .  A
O632        C637   1.269       .  A
O633      Fe1747   2.061       .  S
O633        C636   1.268       .  A
O634        C646   1.267       .  A
O635      Fe1748   2.060       .  S
O635        C648   1.267       .  A
C636        O641   1.265       .  A
C636        C949   1.488       .  S
C637        C933   1.497       .  S
O639        C642   1.266       .  A
O640        C642   1.269       .  A
O641      Fe1749   2.053       .  S
C642        C978   1.486       .  S
O643      Fe1747   2.061       .  S
O643        C648   1.269       .  A
O644        C646   1.270       .  A
C645        O647   1.266       .  A
C645       C1010   1.469       .  S
C646        C997   1.474       .  S
O647      Fe1749   2.055       .  S
C648        C962   1.490       .  S
Fe649       O665   2.062       .  S
Fe649       O655   2.049       .  S
Fe649       O662   2.050       .  S
Fe649       O654   2.061       .  S
Fe649       O660   1.970       .  S
Fe650       O653   2.058       .  S
Fe650       O657   2.069       .  S
Fe650       O661   2.059       .  S
Fe650       O666   2.065       .  S
Fe650       O660   1.971       .  S
Fe651       O669   2.064       .  S
Fe651       O656   2.057       .  S
Fe651       O663   2.065       .  S
Fe651       O652   2.069       .  S
Fe651       O660   1.968       .  S
O652        C659   1.270       .  A
O653        C667   1.270       .  A
O654        C659   1.270       .  A
O655        C658   1.263       .  A
O656        C668   1.266       .  A
O657        C670   1.269       .  A
C658        O663   1.268       .  A
C658        C885   1.485       .  S
C659        C837   1.489       .  S
O661        C664   1.267       .  A
O662        C664   1.264       .  A
C664        C850   1.469       .  S
O665        C670   1.270       .  A
O666        C668   1.269       .  A
C667        O669   1.268       .  A
C667        C901   1.492       .  S
C668        C917   1.488       .  S
C670        C866   1.486       .  S
Fe671      O1807   2.061       .  S
Fe671      O1797   2.051       .  S
Fe671       O684   2.049       .  S
Fe671       O676   2.060       .  S
Fe671       O682   1.976       .  S
Fe672      O1795   2.058       .  S
Fe672      O1799   2.069       .  S
Fe672       O683   2.057       .  S
Fe672       O688   2.062       .  S
Fe672       O682   1.975       .  S
Fe673      O1811   2.061       .  S
Fe673       O678   2.062       .  S
Fe673      O1805   2.065       .  S
Fe673       O674   2.068       .  S
Fe673       O682   1.973       .  S
O674        C681   1.270       .  A
O675      Fe1792   2.062   1_455  S
O675        C689   1.270       .  A
O676        C681   1.270       .  A
O677      Fe1791   2.046   1_455  S
O677        C680   1.263       .  A
O678        C690   1.268       .  A
O679      Fe1792   2.065   1_455  S
O679        C692   1.269       .  A
C680        O685   1.270       .  A
C680        C882   1.483       .  S
C681        C869   1.484       .  S
O683        C686   1.268       .  A
O684        C686   1.263       .  A
O685      Fe1793   2.066   1_455  S
C686        C853   1.481       .  S
O687      Fe1791   2.065   1_455  S
O687        C692   1.270       .  A
O688        C690   1.268       .  A
C689        O691   1.266       .  A
C689        C802   1.479       .  S
C690        C818   1.478       .  S
O691      Fe1793   2.057   1_455  S
C692        C834   1.488       .  S
Fe693      O1829   2.060       .  S
Fe693       O699   2.053       .  S
Fe693      O1826   2.052       .  S
Fe693       O698   2.058       .  S
Fe693      O1824   1.967       .  S
Fe694       O697   2.076       .  S
Fe694       O701   2.062       .  S
Fe694       O705   2.076       .  S
Fe694       O710   2.058       .  S
Fe694       O704   1.972   1_455  S
Fe695       O713   2.057       .  S
Fe695       O700   2.067       .  S
Fe695       O707   2.068       .  S
Fe695       O696   2.063       .  S
Fe695      O1824   1.969       .  S
O696        C703   1.268       .  A
O697        C711   1.272   1_455  A
O698        C703   1.266       .  A
O699        C702   1.268       .  A
O700        C712   1.270       .  A
O701        C714   1.267       .  A
C702        O707   1.270       .  A
C702        C757   1.476       .  S
C703        C770   1.479       .  S
O704      Fe1813   1.970       .  S
O704      Fe1815   1.972       .  S
O705        C708   1.272       .  A
O706      Fe1813   2.058   1_455  S
O706        C708   1.268       .  A
C708        C786   1.484       .  S
O709      Fe1813   2.052   1_455  S
O709        C714   1.267       .  A
O710       C1832   1.266   1_455  A
C711       O1833   1.267       .  A
C711       C1042   1.484       .  S
C712       O1830   1.269       .  A
C712       C1029   1.482       .  S
O713       C1831   1.267       .  A
C714        C741   1.484       .  S
Fe715       O731   2.056       .  S
Fe715       O721   2.058       .  S
Fe715       O728   2.054       .  S
Fe715       O720   2.062       .  S
Fe715       O726   1.966       .  S
Fe716       O719   2.066       .  S
Fe716       O723   2.054       .  S
Fe716       O727   2.062       .  S
Fe716       O732   2.058       .  S
Fe716       O726   1.965       .  S
Fe717       O735   2.060       .  S
Fe717       O722   2.057       .  S
Fe717       O729   2.062       .  S
Fe717       O718   2.056       .  S
Fe717       O726   1.958       .  S
O718        C725   1.267       .  A
O719        C733   1.269       .  A
O720        C725   1.269       .  A
O721        C724   1.269       .  A
O722        C734   1.266       .  A
O723        C736   1.267       .  A
C724        O729   1.267       .  A
C724        C754   1.487       .  S
C725        C738   1.492       .  S
O727        C730   1.271       .  A
O728        C730   1.267       .  A
C730        C789   1.480       .  S
O731        C736   1.266       .  A
O732        C734   1.268       .  A
C733        O735   1.270       .  A
C733        C821   1.480       .  S
C734        C805   1.481       .  S
C736        C773   1.468       .  S
C737        C738   1.411       .  A
C737        C742   1.403       .  A
C737        H744   1.083       .  S
C738        C739   1.420       .  A
C739        C740   1.400       .  A
C739        C746   1.510       .  S
C740        C741   1.405       .  A
C740        H745   1.084       .  S
C741        C742   1.414       .  A
C742        C743   1.509       .  S
C743        H747   1.111       .  S
C743        H748   1.110       .  S
C743        H749   1.109       .  S
C746        H750   1.110       .  S
C746        H751   1.110       .  S
C746        H752   1.111       .  S
C753        C754   1.407       .  A
C753        C758   1.402       .  A
C753        H760   1.084       .  S
C754        C755   1.421       .  A
C755        C756   1.402       .  A
C755        C762   1.510       .  S
C756        C757   1.402       .  A
C756        H761   1.085       .  S
C757        C758   1.413       .  A
C758        C759   1.509       .  S
C759        H763   1.111       .  S
C759        H764   1.109       .  S
C759        H765   1.111       .  S
C762        H766   1.110       .  S
C762        H767   1.110       .  S
C762        H768   1.111       .  S
C769        C774   1.397       .  A
C769        H776   1.084       .  S
C770        C771   1.415       .  A
C771        C772   1.400       .  A
C771        C778   1.510       .  S
C772        H777   1.084       .  S
C773        C774   1.412   1_565  A
C774        C775   1.509       .  S
C775        H779   1.111       .  S
C775        H780   1.111       .  S
C775        H781   1.109   1_545  S
C778        H782   1.111       .  S
C778        H783   1.109       .  S
C778        H784   1.111       .  S
C785        C786   1.402       .  A
C785        C790   1.406       .  A
C785        H792   1.082       .  S
C787        C788   1.399   1_545  A
C787        C794   1.510       .  S
C788        C789   1.403       .  A
C788        H793   1.084       .  S
C790        C791   1.509       .  S
C791        H795   1.111       .  S
C791        H796   1.110       .  S
C791        H797   1.110       .  S
C794        H798   1.110       .  S
C794        H799   1.111       .  S
C794        H800   1.111       .  S
C801        C802   1.400       .  A
C801        C806   1.399       .  A
C801        H808   1.084       .  S
C802        C803   1.417       .  A
C803        C804   1.403       .  A
C803        C810   1.509       .  S
C804        C805   1.404       .  A
C804        H809   1.085       .  S
C805        C806   1.419       .  A
C806        C807   1.510       .  S
C807        H811   1.109       .  S
C807        H812   1.111       .  S
C807        H813   1.111       .  S
C810        H814   1.111       .  S
C810        H815   1.111       .  S
C810        H816   1.109       .  S
C817        C818   1.403       .  A
C817        C822   1.403       .  A
C817        H824   1.081       .  S
C818        C819   1.417       .  A
C819        C820   1.401       .  A
C819        C826   1.509       .  S
C820        C821   1.403       .  A
C820        H825   1.085       .  S
C821        C822   1.417       .  A
C822        C823   1.509       .  S
C823        H827   1.109       .  S
C823        H828   1.111       .  S
C823        H829   1.111       .  S
C826        H830   1.106       .  S
C826        H831   1.111       .  S
C826        H832   1.110       .  S
C833        C834   1.406       .  A
C833        C838   1.404       .  A
C833        H840   1.084       .  S
C834        C835   1.418       .  A
C835        C836   1.403       .  A
C835        C842   1.508       .  S
C836        C837   1.406       .  A
C836        H841   1.084       .  S
C837        C838   1.419       .  A
C838        C839   1.509       .  S
C839        H843   1.111       .  S
C839        H844   1.111       .  S
C839        H845   1.109       .  S
C842        H846   1.109       .  S
C842        H847   1.109       .  S
C842        H848   1.111       .  S
C849        C850   1.400       .  A
C849        C854   1.402       .  A
C849        H856   1.085       .  S
C850        C851   1.412       .  A
C851        C852   1.398       .  A
C851        C858   1.509       .  S
C852        C853   1.405       .  A
C852        H857   1.084       .  S
C853        C854   1.421       .  A
C854        C855   1.510       .  S
C855        H859   1.111       .  S
C855        H860   1.111       .  S
C855        H861   1.109       .  S
C858        H862   1.109       .  S
C858        H863   1.111       .  S
C858        H864   1.111       .  S
C865        C866   1.404       .  A
C866        C867   1.418       .  A
C867        C868   1.404       .  A
C867        C874   1.509       .  S
C868        H873   1.084       .  S
C869        C870   1.416       .  A
C870        C871   1.507       .  S
C871        H875   1.111   1_565  S
C871        H876   1.110       .  S
C871        H877   1.109       .  S
C874        H878   1.110       .  S
C874        H879   1.109       .  S
C874        H880   1.111       .  S
C881        C886   1.401       .  A
C881        H888   1.085       .  S
C882        C883   1.422       .  A
C883        C890   1.510       .  S
C884        C885   1.405       .  A
C885        C886   1.421       .  A
C886        C887   1.510       .  S
C887        H891   1.111       .  S
C887        H892   1.111       .  S
C887        H893   1.109       .  S
C890        H894   1.110       .  S
C890        H895   1.109       .  S
C890        H896   1.111       .  S
C897        C902   1.403       .  A
C897        H904   1.083       .  S
C898        C899   1.419       .  A
C899        C906   1.509       .  S
C900        C901   1.406       .  A
C901        C902   1.421       .  A
C902        C903   1.509       .  S
C903        H907   1.111       .  S
C903        H908   1.110       .  S
C903        H909   1.110       .  S
C906        H910   1.110       .  S
C906        H911   1.110       .  S
C906        H912   1.111       .  S
C913        C914   1.405       .  A
C913        C918   1.401       .  A
C913        H920   1.084       .  S
C914        C915   1.420       .  A
C915        C916   1.405       .  A
C915        C922   1.509       .  S
C916        C917   1.406       .  A
C916        H921   1.084       .  S
C917        C918   1.418       .  A
C918        C919   1.509       .  S
C919        H923   1.111       .  S
C919        H924   1.111       .  S
C919        H925   1.110       .  S
C922        H926   1.110       .  S
C922        H927   1.110       .  S
C922        H928   1.111       .  S
C929        C930   1.403       .  A
C929        C934   1.403       .  A
C929        H936   1.084       .  S
C930        C931   1.413       .  A
C931        C932   1.405       .  A
C931        C938   1.509       .  S
C932        C933   1.411       .  A
C932        H937   1.083       .  S
C933        C934   1.423       .  A
C934        C935   1.510       .  S
C935        H939   1.111       .  S
C935        H940   1.110       .  S
C935        H941   1.110       .  S
C938        H942   1.111       .  S
C938        H943   1.109       .  S
C938        H944   1.111       .  S
C945        C946   1.403       .  A
C945        C950   1.399       .  A
C945        H952   1.084       .  S
C946        C947   1.416       .  A
C947        C948   1.404       .  A
C947        C954   1.509       .  S
C948        C949   1.408       .  A
C948        H953   1.084       .  S
C949        C950   1.420       .  A
C950        C951   1.510       .  S
C951        H955   1.111       .  S
C951        H956   1.109       .  S
C951        H957   1.110       .  S
C954        H958   1.109       .  S
C954        H959   1.111       .  S
C954        H960   1.111       .  S
C961        C962   1.407       .  A
C961        C966   1.404       .  A
C961        H968   1.084       .  S
C963        C964   1.403       .  A
C963        C970   1.510       .  S
C964        C965   1.404       .  A
C964        H969   1.084       .  S
C966        C967   1.510       .  S
C967        H971   1.111       .  S
C967        H972   1.111       .  S
C967        H973   1.110       .  S
C970        H974   1.110   1_565  S
C970        H975   1.110       .  S
C970        H976   1.111       .  S
C977        C978   1.406       .  A
C977        H984   1.084       .  S
C978        C979   1.418       .  A
C979        C986   1.509       .  S
C980        C981   1.410       .  A
C980        H985   1.084       .  S
C981        C982   1.422       .  A
C982        C983   1.510       .  S
C983        H987   1.111   1_565  S
C983        H988   1.110       .  S
C983        H989   1.110       .  S
C986        H990   1.109       .  S
C986        H991   1.110       .  S
C986        H992   1.111       .  S
C993        C994   1.403       .  A
C993        C998   1.402       .  A
C993       H1000   1.085       .  S
C994        C995   1.418       .  A
C995        C996   1.401       .  A
C995       C1002   1.510       .  S
C996        C997   1.401       .  A
C996       H1001   1.084       .  S
C997        C998   1.417       .  A
C998        C999   1.510       .  S
C999       H1003   1.110       .  S
C999       H1004   1.111       .  S
C999       H1005   1.106       .  S
C1002      H1006   1.106       .  S
C1002      H1007   1.111       .  S
C1002      H1008   1.110       .  S
C1009      C1010   1.402       .  A
C1009      C1014   1.401       .  A
C1009      H1016   1.085       .  S
C1010      C1011   1.415       .  A
C1011      C1012   1.398       .  A
C1011      C1018   1.510       .  S
C1012      C1013   1.402       .  A
C1012      H1017   1.085       .  S
C1013      C1014   1.417       .  A
C1014      C1015   1.510       .  S
C1015      H1019   1.110       .  S
C1015      H1020   1.106       .  S
C1015      H1021   1.111       .  S
C1018      H1022   1.111       .  S
C1018      H1023   1.106       .  S
C1018      H1024   1.110       .  S
C1025      C2146   1.406   1_454  A
C1025      H1032   1.084       .  S
C1026      C2145   1.407   1_556  A
C1026      C1027   1.419   1_565  A
C1027      C1034   1.510       .  S
C1028      C1029   1.405   1_556  A
C1028      H1033   1.084       .  S
C1029      C2150   1.415       .  A
C1030      C2149   1.414   1_455  A
C1030      C1031   1.508       .  S
C1031      H1035   1.111       .  S
C1031      H1036   1.111       .  S
C1031      H1037   1.109       .  S
C1034      H1038   1.110   1_545  S
C1034      H1039   1.110       .  S
C1034      H1040   1.111       .  S
C1041      C1042   1.403   1_455  A
C1041      C1046   1.403       .  A
C1041      H1048   1.084       .  S
C1042      C2163   1.418       .  A
C1043      C2162   1.419       .  A
C1043      C1044   1.405   1_554  A
C1043      C1050   1.509       .  S
C1044      C1045   1.404       .  A
C1044      H1049   1.084       .  S
C1045      C2166   1.418       .  A
C1046      C2165   1.418   1_554  A
C1046      C1047   1.509       .  S
C1047      H1051   1.111       .  S
C1047      H1052   1.111       .  S
C1047      H1053   1.109   1_554  S
C1050      H1054   1.110       .  S
C1050      H1055   1.111       .  S
C1050      H1056   1.111   1_554  S
C1057      C1058   1.403       .  A
C1057      C1062   1.399       .  A
C1057      H1064   1.084       .  S
C1058      C1059   1.420       .  A
C1059      C1060   1.403       .  A
C1059      C1066   1.509       .  S
C1060      C1061   1.403       .  A
C1060      H1065   1.084       .  S
C1061      C1062   1.417       .  A
C1062      C1063   1.510       .  S
C1063      H1067   1.111       .  S
C1063      H1068   1.111       .  S
C1063      H1069   1.110       .  S
C1066      H1070   1.110       .  S
C1066      H1071   1.110       .  S
C1066      H1072   1.111       .  S
C1073      C1074   1.402       .  A
C1073      C1078   1.404       .  A
C1073      H1080   1.085       .  S
C1074      C1075   1.413       .  A
C1075      C1076   1.400       .  A
C1075      C1082   1.509       .  S
C1076      C1077   1.404       .  A
C1076      H1081   1.084       .  S
C1077      C1078   1.419       .  A
C1078      C1079   1.509       .  S
C1079      H1083   1.111       .  S
C1079      H1084   1.111       .  S
C1079      H1085   1.109       .  S
C1082      H1086   1.109       .  S
C1082      H1087   1.111       .  S
C1082      H1088   1.111       .  S
C1089      C1094   1.402   1_545  A
C1089      H1096   1.085       .  S
C1090      C1091   1.417       .  A
C1091      C1092   1.400       .  A
C1091      C1098   1.510       .  S
C1092      H1097   1.084       .  S
C1093      C1094   1.420       .  A
C1094      C1095   1.509       .  S
C1095      H1099   1.111       .  S
C1095      H1100   1.110       .  S
C1095      H1101   1.110       .  S
C1098      H1102   1.111       .  S
C1098      H1103   1.110       .  S
C1098      H1104   1.111       .  S
C1105      C1110   1.399       .  A
C1105      H1112   1.083       .  S
C1106      C1107   1.421       .  A
C1107      C1108   1.405   1_565  A
C1107      C1114   1.509       .  S
C1108      H1113   1.084       .  S
C1109      C1110   1.418       .  A
C1110      C1111   1.511       .  S
C1111      H1115   1.111       .  S
C1111      H1116   1.110       .  S
C1111      H1117   1.110       .  S
C1114      H1118   1.110       .  S
C1114      H1119   1.110       .  S
C1114      H1120   1.111       .  S
Fe1121     O1127   2.062       .  S
Fe1121     O1126   2.045       .  S
Fe1122     O1125   2.056       .  S
Fe1122     O1129   2.083       .  S
Fe1122     O1133   2.059       .  S
Fe1122     O1138   2.076       .  S
Fe1122     O1132   1.964   1_655  S
Fe1123     O1141   2.072       .  S
Fe1123     O1128   2.052       .  S
Fe1123     O1135   2.055       .  S
Fe1123     O1124   2.080       .  S
O1124      C1131   1.274       .  A
O1125      C1139   1.268       .  A
O1126      C1131   1.265       .  A
O1127      C1130   1.268       .  A
O1129      C1142   1.274       .  A
C1130      O1135   1.265       .  A
C1130      C1666   1.492       .  S
C1131      C1621   1.488       .  S
O1133      C1136   1.267       .  A
O1134      C1136   1.266       .  A
C1136      C1634   1.469       .  S
O1137      C1142   1.265       .  A
O1138      C1140   1.272   1_655  A
C1139      C1586   1.478       .  S
C1140      C1605   1.489       .  S
C1142      C1653   1.485       .  S
Fe1143     O1159   2.051       .  S
Fe1143     O1149   2.056       .  S
Fe1143     O1156   2.055       .  S
Fe1143     O1148   2.049       .  S
Fe1143     O1154   1.974       .  S
Fe1144     O1147   2.058       .  S
Fe1144     O1151   2.065       .  S
Fe1144     O1155   2.057       .  S
Fe1144     O1160   2.066       .  S
Fe1144     O1154   1.970       .  S
Fe1145     O1163   2.073       .  S
Fe1145     O1150   2.053       .  S
Fe1145     O1157   2.054       .  S
Fe1145     O1146   2.072       .  S
Fe1145     O1154   1.970       .  S
O1146      C1153   1.270       .  A
O1147      C1161   1.268       .  A
O1148      C1153   1.264       .  A
O1149      C1152   1.268       .  A
O1150      C1162   1.267       .  A
O1151      C1164   1.269       .  A
C1152      O1157   1.267       .  A
C1152      C1669   1.477       .  S
C1153      C1650   1.481       .  S
O1155      C1158   1.269       .  A
O1156      C1158   1.266       .  A
C1158      C1637   1.479       .  S
O1159      C1164   1.265       .  A
O1160      C1162   1.269       .  A
C1161      O1163   1.270       .  A
C1161      C1554   1.479       .  S
C1162      C1573   1.471       .  S
C1164      C1618   1.478       .  S
Fe1165     O1181   2.055       .  S
Fe1165     O1171   2.058       .  S
Fe1165     O1178   2.061       .  S
Fe1165     O1170   2.057       .  S
Fe1165     O1176   1.973       .  S
Fe1166     O1169   2.060       .  S
Fe1166     O1173   2.061       .  S
Fe1166     O1177   2.058       .  S
Fe1166     O1182   2.066       .  S
Fe1166     O1176   1.974       .  S
Fe1167     O1185   2.059       .  S
Fe1167     O1172   2.070       .  S
Fe1167     O1179   2.072       .  S
Fe1167     O1168   2.060       .  S
Fe1167     O1176   1.972       .  S
O1168      C1175   1.267       .  A
O1169      C1183   1.268       .  A
O1170      C1175   1.268       .  A
O1171      C1174   1.268       .  A
O1172      C1184   1.270       .  A
O1173      C1186   1.268       .  A
C1174      O1179   1.269       .  A
C1174      C1506   1.493       .  S
C1175      C1525   1.494       .  S
O1177      C1180   1.266       .  A
O1178      C1180   1.268       .  A
C1180      C1541   1.489       .  S
O1181      C1186   1.268       .  A
O1182      C1184   1.270       .  A
C1183      O1185   1.267       .  A
C1183      C1474   1.483       .  S
C1184      C1458   1.491       .  S
C1186      C1490   1.486       .  S
Fe1187     O1200   2.049       .  S
Fe1187     O1192   2.056       .  S
Fe1187     O1198   1.979       .  S
Fe1188     O1199   2.071       .  S
Fe1188     O1204   2.058       .  S
Fe1188     O1198   1.977       .  S
Fe1189     O1194   2.071       .  S
Fe1189     O1190   2.061       .  S
Fe1189     O1198   1.979       .  S
O1190      C1197   1.267       .  A
O1191      C1205   1.269       .  A
O1192      C1197   1.268       .  A
O1193      C1196   1.267       .  A
O1194      C1206   1.270       .  A
O1195      C1208   1.267       .  A
C1196      O1201   1.268       .  A
C1196      C1509   1.489       .  S
C1197      C1493   1.491       .  S
O1199      C1202   1.269       .  A
O1200      C1202   1.266       .  A
C1202      C1538   1.486       .  S
O1203      C1208   1.269       .  A
O1204      C1206   1.267       .  A
C1205      O1207   1.267       .  A
C1205      C1570   1.471       .  S
C1206      C1557   1.476       .  S
C1208      C1522   1.492       .  S
Fe1209     O1225   2.058       .  S
Fe1209     O1215   2.048       .  S
Fe1209     O1222   2.047       .  S
Fe1209     O1214   2.055       .  S
Fe1209     O1220   1.970       .  S
Fe1210     O1213   2.063       .  S
Fe1210     O1217   2.063       .  S
Fe1210     O1221   2.060       .  S
Fe1210     O1226   2.058       .  S
Fe1210     O1220   1.972       .  S
Fe1211     O1229   2.055       .  S
Fe1211     O1216   2.062       .  S
Fe1211     O1223   2.067       .  S
Fe1211     O1212   2.064       .  S
Fe1211     O1220   1.970       .  S
O1212      C1219   1.269       .  A
O1213      C1227   1.269       .  A
O1214      C1219   1.270       .  A
O1215      C1218   1.262       .  A
O1216      C1228   1.268       .  A
O1217      C1230   1.269       .  A
C1218      O1223   1.269       .  A
C1218      C1445   1.490       .  S
C1219      C1397   1.486       .  S
O1221      C1224   1.267       .  A
O1222      C1224   1.262       .  A
C1224      C1410   1.473       .  S
O1225      C1230   1.270       .  A
O1226      C1228   1.269       .  A
C1227      O1229   1.266       .  A
C1227      C1461   1.490       .  S
C1228      C1477   1.485       .  S
C1230      C1426   1.484       .  S
Fe1231     O1244   2.049       .  S
Fe1231     O1236   2.058       .  S
Fe1231     O1242   1.970       .  S
Fe1232     O1243   2.064       .  S
Fe1232     O1248   2.066       .  S
Fe1232     O1242   1.966       .  S
Fe1233     O1238   2.069       .  S
Fe1233     O1234   2.063       .  S
Fe1233     O1242   1.962       .  S
O1234      C1241   1.269       .  A
O1235      C1249   1.271       .  A
O1236      C1241   1.270       .  A
O1237      C1240   1.266       .  A
O1238      C1250   1.269       .  A
O1239      C1252   1.268       .  A
C1240      O1245   1.270       .  A
C1240      C1442   1.488       .  S
C1241      C1429   1.479       .  S
O1243      C1246   1.269       .  A
O1244      C1246   1.263       .  A
C1246      C1413   1.485       .  S
O1247      C1252   1.268       .  A
O1248      C1250   1.268       .  A
C1249      O1251   1.270       .  A
C1249      C1362   1.487       .  S
C1250      C1378   1.478       .  S
C1252      C1394   1.479       .  S
Fe1253     O1259   2.047       .  S
Fe1253     O1258   2.057       .  S
Fe1254     O1257   2.078       .  S
Fe1254     O1261   2.058       .  S
Fe1254     O1265   2.077       .  S
Fe1254     O1270   2.060       .  S
Fe1254     O1264   1.969       .  S
Fe1255     O1273   2.055       .  S
Fe1255     O1260   2.067       .  S
Fe1255     O1267   2.068       .  S
Fe1255     O1256   2.057       .  S
O1256      C1263   1.267       .  A
O1257      C1271   1.273       .  A
O1258      C1263   1.264       .  A
O1259      C1262   1.268       .  A
O1260      C1272   1.270       .  A
O1261      C1274   1.266       .  A
C1262      O1267   1.270       .  A
C1262      C1317   1.479       .  S
C1263      C1330   1.485       .  S
O1265      C1268   1.273       .  A
O1266      C1268   1.266       .  A
C1268      C1346   1.479       .  S
O1269      C1274   1.266       .  A
C1271      C1602   1.490       .  S
C1272      C1589   1.488       .  S
C1274      C1301   1.478       .  S
Fe1275     O1291   2.061       .  S
Fe1275     O1281   2.053       .  S
Fe1275     O1288   2.058       .  S
Fe1275     O1280   2.063       .  S
Fe1275     O1286   1.971       .  S
Fe1276     O1279   2.075       .  S
Fe1276     O1283   2.058       .  S
Fe1276     O1287   2.075       .  S
Fe1276     O1292   2.062       .  S
Fe1276     O1286   1.965       .  S
Fe1277     O1295   2.059       .  S
Fe1277     O1282   2.067       .  S
Fe1277     O1289   2.063       .  S
Fe1277     O1278   2.056       .  S
Fe1277     O1286   1.966       .  S
O1278      C1285   1.267       .  A
O1279      C1293   1.270       .  A
O1280      C1285   1.269       .  A
O1281      C1284   1.267       .  A
O1282      C1294   1.268       .  A
O1283      C1296   1.270       .  A
C1284      O1289   1.268       .  A
C1284      C1314   1.482       .  S
C1285      C1298   1.491       .  S
O1287      C1290   1.272       .  A
O1288      C1290   1.267       .  A
C1290      C1349   1.489       .  S
O1291      C1296   1.266       .  A
O1292      C1294   1.270       .  A
C1293      O1295   1.267       .  A
C1293      C1381   1.476       .  S
C1294      C1365   1.487       .  S
C1296      C1333   1.487       .  S
C1297      C1298   1.410       .  A
C1297      C1302   1.402       .  A
C1297      H1304   1.084       .  S
C1298      C1299   1.421       .  A
C1299      C1300   1.401       .  A
C1299      C1306   1.510       .  S
C1300      C1301   1.403       .  A
C1300      H1305   1.085       .  S
C1301      C1302   1.412       .  A
C1302      C1303   1.509       .  S
C1303      H1307   1.111       .  S
C1303      H1308   1.111       .  S
C1303      H1309   1.109       .  S
C1306      H1310   1.110       .  S
C1306      H1311   1.110       .  S
C1306      H1312   1.111       .  S
C1313      C1314   1.406       .  A
C1313      C1318   1.401       .  A
C1313      H1320   1.084       .  S
C1314      C1315   1.417       .  A
C1315      C1316   1.400       .  A
C1315      C1322   1.509       .  S
C1316      C1317   1.405       .  A
C1316      H1321   1.084       .  S
C1317      C1318   1.415       .  A
C1318      C1319   1.509       .  S
C1319      H1323   1.111       .  S
C1319      H1324   1.109       .  S
C1319      H1325   1.111       .  S
C1322      H1326   1.109       .  S
C1322      H1327   1.110       .  S
C1322      H1328   1.111       .  S
C1329      C1890   1.401       .  A
C1329      C1334   1.404       .  A
C1329      H1336   1.085       .  S
C1330      C1889   1.406       .  A
C1330      C1331   1.421       .  A
C1331      C1332   1.403   1_545  A
C1331      C1338   1.509       .  S
C1332      C1893   1.400       .  A
C1332      H1337   1.085       .  S
C1333      C1892   1.406       .  A
C1333      C1334   1.422       .  A
C1334      C1335   1.509       .  S
C1335      H1339   1.111       .  S
C1335      H1340   1.109       .  S
C1335      H1341   1.111       .  S
C1338      H1342   1.109       .  S
C1338      H1343   1.110       .  S
C1338      H1344   1.111   1_545  S
C1345      C1346   1.403       .  A
C1345      C1350   1.402   1_545  A
C1345      H1352   1.083       .  S
C1346      C1907   1.417       .  A
C1347      C1906   1.418       .  A
C1347      C1348   1.403       .  A
C1347      C1354   1.509       .  S
C1348      C1349   1.405       .  A
C1348      H1353   1.084       .  S
C1349      C1910   1.420       .  A
C1350      C1909   1.418       .  A
C1350      C1351   1.508       .  S
C1351      H1355   1.111       .  S
C1351      H1356   1.110       .  S
C1351      H1357   1.110       .  S
C1354      H1358   1.110       .  S
C1354      H1359   1.111       .  S
C1354      H1360   1.111       .  S
C1361      C1362   1.403       .  A
C1361      C1366   1.403       .  A
C1361      H1368   1.085       .  S
C1362      C1363   1.419       .  A
C1363      C1364   1.404       .  A
C1363      C1370   1.509       .  S
C1364      C1365   1.404       .  A
C1364      H1369   1.085       .  S
C1365      C1366   1.419       .  A
C1366      C1367   1.509       .  S
C1367      H1371   1.109       .  S
C1367      H1372   1.111       .  S
C1367      H1373   1.110       .  S
C1370      H1374   1.110       .  S
C1370      H1375   1.111       .  S
C1370      H1376   1.109       .  S
C1377      C1378   1.402       .  A
C1377      C1382   1.404       .  A
C1377      H1384   1.082       .  S
C1378      C1379   1.414       .  A
C1379      C1380   1.404       .  A
C1379      C1386   1.508       .  S
C1380      C1381   1.403       .  A
C1380      H1385   1.083       .  S
C1381      C1382   1.417       .  A
C1382      C1383   1.509       .  S
C1383      H1387   1.110       .  S
C1383      H1388   1.111       .  S
C1383      H1389   1.107       .  S
C1386      H1390   1.111       .  S
C1386      H1391   1.111       .  S
C1386      H1392   1.109       .  S
C1393      C1394   1.404       .  A
C1393      C1398   1.404       .  A
C1393      H1400   1.084       .  S
C1394      C1395   1.414       .  A
C1395      C1396   1.399       .  A
C1395      C1402   1.508       .  S
C1396      C1397   1.406       .  A
C1396      H1401   1.084       .  S
C1397      C1398   1.420       .  A
C1398      C1399   1.510       .  S
C1399      H1403   1.111       .  S
C1399      H1404   1.111       .  S
C1399      H1405   1.109       .  S
C1402      H1406   1.110       .  S
C1402      H1407   1.109       .  S
C1402      H1408   1.111       .  S
C1409      C1410   1.399       .  A
C1409      C1414   1.401       .  A
C1409      H1416   1.085       .  S
C1410      C1411   1.415       .  A
C1411      C1412   1.400       .  A
C1411      C1418   1.509       .  S
C1412      C1413   1.405       .  A
C1412      H1417   1.084       .  S
C1413      C1414   1.423       .  A
C1414      C1415   1.510       .  S
C1415      H1419   1.111       .  S
C1415      H1420   1.111       .  S
C1415      H1421   1.109       .  S
C1418      H1422   1.109       .  S
C1418      H1423   1.111       .  S
C1418      H1424   1.111       .  S
C1425      C1426   1.406       .  A
C1425      C1990   1.402   1_545  A
C1425      H1992   1.084       .  S
C1426      C1427   1.419       .  A
C1427      C1428   1.401   1_545  A
C1427      C1434   1.509       .  S
C1428      C1989   1.403       .  A
C1428      H1433   1.084       .  S
C1429      C1988   1.402       .  A
C1429      C1430   1.417       .  A
C1430      C1985   1.402       .  A
C1430      C1431   1.508       .  S
C1431      H1435   1.111       .  S
C1431      H1436   1.109       .  S
C1431      H1437   1.109       .  S
H1432      C1985   1.084       .  S
C1434      H1438   1.110       .  S
C1434      H1439   1.109       .  S
C1434      H1440   1.111   1_545  S
C1441      C2002   1.399       .  A
C1441      C1446   1.403   1_565  A
C1441      H1448   1.085       .  S
C1442      C2001   1.405       .  A
C1442      C1443   1.421       .  A
C1443      C2004   1.406       .  A
C1443      C1450   1.509       .  S
C1444      C2003   1.401   1_545  A
C1444      C1445   1.406       .  A
C1444      H2009   1.084       .  S
C1445      C1446   1.424       .  A
C1446      C1447   1.510       .  S
C1447      H1451   1.111       .  S
C1447      H1452   1.111       .  S
C1447      H1453   1.109       .  S
H1449      C2004   1.085       .  S
C1450      H1454   1.111       .  S
C1450      H1455   1.109       .  S
C1450      H1456   1.111       .  S
C1457      C2018   1.404       .  A
C1457      C1462   1.399   1_565  A
C1457      H1464   1.084       .  S
C1458      C2017   1.405       .  A
C1458      C1459   1.418       .  A
C1459      C2020   1.403       .  A
C1459      C1466   1.508       .  S
C1460      C2019   1.405   1_545  A
C1460      C1461   1.407       .  A
C1460      H2025   1.084       .  S
C1461      C1462   1.420       .  A
C1462      C1463   1.510       .  S
C1463      H1467   1.111       .  S
C1463      H1468   1.110       .  S
C1463      H1469   1.110       .  S
H1465      C2020   1.081       .  S
C1466      H1470   1.109       .  S
C1466      H1471   1.109       .  S
C1466      H1472   1.111       .  S
C1473      C1474   1.405       .  A
C1473      C1478   1.403       .  A
C1473      H1480   1.084       .  S
C1474      C1475   1.416       .  A
C1475      C1476   1.402       .  A
C1475      C1482   1.508       .  S
C1476      C1477   1.406       .  A
C1476      H1481   1.084       .  S
C1477      C1478   1.418       .  A
C1478      C1479   1.509       .  S
C1479      H1483   1.111       .  S
C1479      H1484   1.110       .  S
C1479      H1485   1.110       .  S
C1482      H1486   1.109       .  S
C1482      H1487   1.109       .  S
C1482      H1488   1.111       .  S
C1489      C1490   1.406       .  A
C1489      C1494   1.401       .  A
C1489      H1496   1.084       .  S
C1490      C1491   1.416       .  A
C1491      C1492   1.403       .  A
C1491      C1498   1.510       .  S
C1492      C1493   1.410       .  A
C1492      H1497   1.084       .  S
C1493      C1494   1.419       .  A
C1494      C1495   1.510       .  S
C1495      H1499   1.111       .  S
C1495      H1500   1.111       .  S
C1495      H1501   1.110       .  S
C1498      H1502   1.111       .  S
C1498      H1503   1.109       .  S
C1498      H1504   1.111       .  S
C1505      C1506   1.408       .  A
C1505      C1510   1.403       .  A
C1505      H1512   1.084       .  S
C1506      C1507   1.419       .  A
C1507      C1508   1.405       .  A
C1507      C1514   1.509       .  S
C1508      C1509   1.407       .  A
C1508      H1513   1.084       .  S
C1509      C1510   1.416       .  A
C1510      C1511   1.509       .  S
C1511      H1515   1.111       .  S
C1511      H1516   1.109       .  S
C1511      H1517   1.110       .  S
C1514      H1518   1.109       .  S
C1514      H1519   1.111       .  S
C1514      H1520   1.111       .  S
C1521      C1522   1.410       .  A
C1521      C1526   1.402   1_545  A
C1521      H1528   1.083       .  S
C1522      C2083   1.421   1_545  A
C1523      C2082   1.415       .  A
C1523      C1524   1.402       .  A
C1523      C1530   1.509       .  S
C1524      C1525   1.410       .  A
C1524      H1529   1.083       .  S
C1525      C2086   1.421       .  A
C1526      C2085   1.414       .  A
C1526      C1527   1.510   1_565  S
C1527      H1531   1.111       .  S
C1527      H1532   1.111       .  S
C1527      H1533   1.109   1_545  S
C1530      H1534   1.111       .  S
C1530      H1535   1.109       .  S
C1530      H1536   1.111       .  S
C1537      C1538   1.406       .  A
C1537      C2102   1.402   1_545  A
C1537      H1544   1.084       .  S
C1538      C1539   1.414       .  A
C1539      C2100   1.403   1_545  A
C1539      C1546   1.508       .  S
C1540      C2099   1.404       .  A
C1540      C1541   1.408       .  A
C1540      H1545   1.084       .  S
C1541      C1542   1.420       .  A
C1542      C2097   1.400       .  A
C1542      C1543   1.509       .  S
C1543      H1547   1.111       .  S
C1543      H1548   1.110       .  S
C1543      H1549   1.109       .  S
C1546      H1550   1.109       .  S
C1546      H1551   1.110       .  S
C1546      H1552   1.111   1_545  S
C1553      C1554   1.404       .  A
C1553      C1558   1.404       .  A
C1553      H1560   1.085       .  S
C1554      C1555   1.418       .  A
C1555      C1556   1.402       .  A
C1555      C1562   1.510       .  S
C1556      C1557   1.402       .  A
C1556      H1561   1.084       .  S
C1557      C1558   1.416       .  A
C1558      C1559   1.509       .  S
C1559      H1563   1.110       .  S
C1559      H1564   1.111       .  S
C1559      H1565   1.106       .  S
C1562      H1566   1.105       .  S
C1562      H1567   1.111       .  S
C1562      H1568   1.110       .  S
C1569      C1570   1.402       .  A
C1569      C1574   1.401       .  A
C1569      H1576   1.085       .  S
C1570      C1571   1.416       .  A
C1571      C1572   1.400       .  A
C1571      C1578   1.509       .  S
C1572      C1573   1.402       .  A
C1572      H1577   1.085       .  S
C1573      C1574   1.416       .  A
C1574      C1575   1.509       .  S
C1575      H1579   1.110       .  S
C1575      H1580   1.106       .  S
C1575      H1581   1.111       .  S
C1578      H1582   1.111       .  S
C1578      H1583   1.106       .  S
C1578      H1584   1.110       .  S
C1585      C2150   1.403       .  A
C1585      H1592   1.084       .  S
C1586      C1587   1.415       .  A
C1587      C2148   1.402   1_556  A
C1587      C1594   1.509       .  S
C1588      C2147   1.404   1_544  A
C1588      C1589   1.406       .  A
C1588      H1593   1.084       .  S
C1590      C2145   1.403   1_545  A
C1590      C1591   1.509   1_545  S
C1591      H1595   1.111       .  S
C1591      H1596   1.110       .  S
C1591      H1597   1.110   1_565  S
C1594      H1598   1.109       .  S
C1594      H1599   1.111       .  S
C1594      H1600   1.111       .  S
C1601      C1602   1.405       .  A
C1601      C1606   1.404   1_554  A
C1601      H1608   1.084       .  S
C1603      C1604   1.404   1_554  A
C1603      C1610   1.509       .  S
C1604      C1605   1.405   1_655  A
C1604      H1609   1.084       .  S
C1606      C1607   1.509       .  S
C1607      H1611   1.111   1_556  S
C1607      H1612   1.111       .  S
C1607      H1613   1.110       .  S
C1610      H1614   1.110       .  S
C1610      H1615   1.110       .  S
C1610      H1616   1.111   1_554  S
C1617      C1618   1.401       .  A
C1617      C1622   1.402       .  A
C1617      H1624   1.085       .  S
C1618      C1619   1.415       .  A
C1619      C1620   1.402       .  A
C1619      C1626   1.509       .  S
C1620      C1621   1.406       .  A
C1620      H1625   1.084       .  S
C1621      C1622   1.422       .  A
C1622      C1623   1.509       .  S
C1623      H1627   1.111       .  S
C1623      H1628   1.110       .  S
C1623      H1629   1.110       .  S
C1626      H1630   1.111       .  S
C1626      H1631   1.110       .  S
C1626      H1632   1.111       .  S
C1633      C1634   1.400       .  A
C1633      C1638   1.403       .  A
C1633      H1640   1.084       .  S
C1634      C1635   1.412       .  A
C1635      C1636   1.398       .  A
C1635      C1642   1.508       .  S
C1636      C1637   1.404       .  A
C1636      H1641   1.084       .  S
C1637      C1638   1.420       .  A
C1638      C1639   1.509       .  S
C1639      H1643   1.111       .  S
C1639      H1644   1.111       .  S
C1639      H1645   1.109       .  S
C1642      H1646   1.109       .  S
C1642      H1647   1.111       .  S
C1642      H1648   1.111       .  S
C1649      C2210   1.402       .  A
C1649      C1654   1.403       .  A
C1649      H1656   1.084       .  S
C1650      C2209   1.403       .  A
C1650      C1651   1.418       .  A
C1651      C1652   1.401   1_545  A
C1651      C1658   1.509       .  S
C1652      C2213   1.403       .  A
C1652      H1657   1.084       .  S
C1653      C2212   1.403       .  A
C1653      C1654   1.420       .  A
C1654      C1655   1.508       .  S
C1655      H1659   1.111       .  S
C1655      H1660   1.108       .  S
C1655      H1661   1.110       .  S
C1658      H1662   1.111       .  S
C1658      H1663   1.110       .  S
C1658      H1664   1.111       .  S
C1665      C2226   1.409       .  A
C1665      C1670   1.401   1_565  A
C1665      H1672   1.084       .  S
C1666      C2225   1.409       .  A
C1666      C1667   1.420       .  A
C1667      C1668   1.402       .  A
C1667      C1674   1.510       .  S
C1668      C2229   1.406       .  A
C1668      H1673   1.084       .  S
C1669      C2228   1.403       .  A
C1669      C1670   1.413       .  A
C1670      C1671   1.509       .  S
C1671      H1675   1.111       .  S
C1671      H1676   1.109       .  S
C1671      H1677   1.111       .  S
C1674      H1678   1.110       .  S
C1674      H1679   1.110       .  S
C1674      H1680   1.111       .  S
Fe1681     O1687   2.067       .  S
Fe1681     O1686   2.040       .  S
Fe1682     O1685   2.057       .  S
Fe1682     O1689   2.083       .  S
Fe1682     O1693   2.059       .  S
Fe1682     O1698   2.077       .  S
Fe1682     O1692   1.960   1_655  S
Fe1683     O1701   2.071       .  S
Fe1683     O1688   2.053       .  S
Fe1683     O1695   2.049       .  S
Fe1683     O1684   2.077       .  S
O1684      C1691   1.273       .  A
O1685      C1699   1.268       .  A
O1686      C1691   1.265       .  A
O1687      C1690   1.269       .  A
O1689      C1702   1.274       .  A
C1690      O1695   1.264       .  A
C1690      C2226   1.488       .  S
C1691      C2181   1.476       .  S
O1693      C1696   1.267       .  A
O1694      C1696   1.267       .  A
C1696      C2194   1.473       .  S
O1697      C1702   1.265       .  A
O1698      C1700   1.271   1_655  A
C1699      C2146   1.491       .  S
C1700      C2165   1.485       .  S
C1702      C2213   1.483       .  S
Fe1703     O1719   2.042       .  S
Fe1703     O1709   2.061       .  S
Fe1703     O1716   2.060       .  S
Fe1703     O1708   2.045       .  S
Fe1703     O1714   1.966       .  S
Fe1704     O1707   2.060       .  S
Fe1704     O1711   2.069       .  S
Fe1704     O1715   2.061       .  S
Fe1704     O1720   2.066       .  S
Fe1704     O1714   1.970       .  S
Fe1705     O1723   2.068       .  S
Fe1705     O1710   2.052       .  S
Fe1705     O1717   2.053       .  S
Fe1705     O1706   2.074       .  S
Fe1705     O1714   1.967       .  S
O1706      C1713   1.271       .  A
O1707      C1721   1.268       .  A
O1708      C1713   1.264       .  A
O1709      C1712   1.269       .  A
O1710      C1722   1.267       .  A
O1711      C1724   1.271       .  A
C1712      O1717   1.266       .  A
C1712      C2229   1.486       .  S
C1713      C2210   1.482       .  S
O1715      C1718   1.269       .  A
O1716      C1718   1.267       .  A
C1718      C2197   1.481       .  S
O1719      C1724   1.263       .  A
O1720      C1722   1.269       .  A
C1721      O1723   1.269       .  A
C1721      C2114   1.476       .  S
C1722      C2133   1.469       .  S
C1724      C2178   1.483       .  S
Fe1725     O1741   2.046       .  S
Fe1725     O1731   2.050       .  S
Fe1725     O1738   2.053       .  S
Fe1725     O1730   2.047       .  S
Fe1725     O1736   1.975       .  S
Fe1726     O1729   2.057       .  S
Fe1726     O1733   2.066       .  S
Fe1726     O1737   2.067       .  S
Fe1726     O1742   2.059       .  S
Fe1726     O1736   1.973       .  S
Fe1727     O1745   2.061       .  S
Fe1727     O1732   2.059       .  S
Fe1727     O1739   2.056       .  S
Fe1727     O1728   2.063       .  S
Fe1727     O1736   1.979       .  S
O1728      C1735   1.267       .  A
O1729      C1743   1.268       .  A
O1730      C1735   1.265       .  A
O1731      C1734   1.267       .  A
O1732      C1744   1.266       .  A
O1733      C1746   1.267       .  A
C1734      O1739   1.266       .  A
C1734      C2066   1.477       .  S
C1735      C2085   1.483       .  S
O1737      C1740   1.268       .  A
O1738      C1740   1.267       .  A
C1740      C2101   1.491       .  S
O1741      C1746   1.265       .  A
O1742      C1744   1.270       .  A
C1743      O1745   1.267       .  A
C1743      C2034   1.488       .  S
C1744      C2018   1.489       .  S
C1746      C2050   1.478       .  S
Fe1747     O1760   2.059       .  S
Fe1747     O1752   2.066       .  S
Fe1747     O1758   1.978       .  S
Fe1748     O1759   2.061       .  S
Fe1748     O1764   2.061       .  S
Fe1748     O1758   1.976       .  S
Fe1749     O1754   2.059       .  S
Fe1749     O1750   2.052       .  S
Fe1749     O1758   1.973       .  S
O1750      C1757   1.265       .  A
O1751      C1765   1.266       .  A
O1752      C1757   1.270       .  A
O1753      C1756   1.268       .  A
O1754      C1766   1.267       .  A
O1755      C1768   1.268       .  A
C1756      O1761   1.264       .  A
C1756      C2069   1.487       .  S
C1757      C2053   1.494       .  S
O1759      C1762   1.267       .  A
O1760      C1762   1.269       .  A
C1762      C2098   1.483       .  S
O1763      C1768   1.268       .  A
O1764      C1766   1.268       .  A
C1765      O1767   1.266       .  A
C1765      C2130   1.467       .  S
C1766      C2117   1.473       .  S
C1768      C2082   1.486       .  S
Fe1769     O1785   2.059       .  S
Fe1769     O1775   2.059       .  S
Fe1769     O1782   2.059       .  S
Fe1769     O1774   2.061       .  S
Fe1769     O1780   1.968       .  S
Fe1770     O1773   2.065       .  S
Fe1770     O1777   2.063       .  S
Fe1770     O1781   2.068       .  S
Fe1770     O1786   2.063       .  S
Fe1770     O1780   1.967       .  S
Fe1771     O1789   2.067       .  S
Fe1771     O1776   2.064       .  S
Fe1771     O1783   2.066       .  S
Fe1771     O1772   2.071       .  S
Fe1771     O1780   1.966       .  S
O1772      C1779   1.269       .  A
O1773      C1787   1.269       .  A
O1774      C1779   1.270       .  A
O1775      C1778   1.266       .  A
O1776      C1788   1.270       .  A
O1777      C1790   1.269       .  A
C1778      O1783   1.269       .  A
C1778      C2005   1.477       .  S
C1779      C1957   1.487       .  S
O1781      C1784   1.269       .  A
O1782      C1784   1.265       .  A
C1784      C1970   1.487       .  S
O1785      C1790   1.270       .  A
O1786      C1788   1.271       .  A
C1787      O1789   1.267       .  A
C1787      C2021   1.492       .  S
C1788      C2037   1.486       .  S
C1790      C1986   1.482       .  S
Fe1791     O1804   2.051       .  S
Fe1791     O1796   2.061       .  S
Fe1791     O1802   1.974       .  S
Fe1792     O1803   2.067       .  S
Fe1792     O1808   2.057       .  S
Fe1792     O1802   1.970       .  S
Fe1793     O1798   2.064       .  S
Fe1793     O1794   2.057       .  S
Fe1793     O1802   1.977       .  S
O1794      C1801   1.267       .  A
O1795      C1809   1.269       .  A
O1796      C1801   1.270       .  A
O1797      C1800   1.264       .  A
O1798      C1810   1.270       .  A
O1799      C1812   1.269       .  A
C1800      O1805   1.268       .  A
C1800      C2002   1.476       .  S
C1801      C1989   1.480       .  S
O1803      C1806   1.268       .  A
O1804      C1806   1.264       .  A
C1806      C1973   1.472       .  S
O1807      C1812   1.270       .  A
O1808      C1810   1.266       .  A
C1809      O1811   1.268       .  A
C1809      C1922   1.488       .  S
C1810      C1938   1.488       .  S
C1812      C1954   1.488       .  S
Fe1813     O1819   2.058       .  S
Fe1813     O1818   2.057       .  S
Fe1814     O1817   2.077       .  S
Fe1814     O1821   2.064       .  S
Fe1814     O1825   2.082       .  S
Fe1814     O1830   2.061       .  S
Fe1814     O1824   1.967       .  S
Fe1815     O1833   2.056       .  S
Fe1815     O1820   2.060       .  S
Fe1815     O1827   2.067       .  S
Fe1815     O1816   2.058       .  S
O1816      C1823   1.267       .  A
O1817      C1831   1.271       .  A
O1818      C1823   1.266       .  A
O1819      C1822   1.268       .  A
O1820      C1832   1.267       .  A
O1821      C1834   1.268       .  A
C1822      O1827   1.268       .  A
C1822      C1877   1.488       .  S
C1823      C1890   1.475       .  S
O1825      C1828   1.273       .  A
O1826      C1828   1.267       .  A
C1828      C1906   1.486       .  S
O1829      C1834   1.267       .  A
C1831      C2162   1.489       .  S
C1832      C2149   1.477       .  S
C1834      C1861   1.477       .  S
Fe1835     O1851   2.065       .  S
Fe1835     O1841   2.060       .  S
Fe1835     O1848   2.053       .  S
Fe1835     O1840   2.065       .  S
Fe1835     O1846   1.964       .  S
Fe1836     O1839   2.066       .  S
Fe1836     O1843   2.055       .  S
Fe1836     O1847   2.066       .  S
Fe1836     O1852   2.057       .  S
Fe1836     O1846   1.960       .  S
Fe1837     O1855   2.058       .  S
Fe1837     O1842   2.065       .  S
Fe1837     O1849   2.068       .  S
Fe1837     O1838   2.057       .  S
Fe1837     O1846   1.957       .  S
O1838      C1845   1.267       .  A
O1839      C1853   1.267       .  A
O1840      C1845   1.269       .  A
O1841      C1844   1.269       .  A
O1842      C1854   1.267       .  A
O1843      C1856   1.268       .  A
C1844      O1849   1.269       .  A
C1844      C1874   1.482       .  S
C1845      C1858   1.486       .  S
O1847      C1850   1.270       .  A
O1848      C1850   1.266       .  A
C1850      C1909   1.482       .  S
O1851      C1856   1.268       .  A
O1852      C1854   1.270       .  A
C1853      O1855   1.270       .  A
C1853      C1941   1.491       .  S
C1854      C1925   1.492       .  S
C1856      C1893   1.473       .  S
C1857      C1858   1.409       .  A
C1857      C1862   1.403       .  A
C1857      H1864   1.084       .  S
C1858      C1859   1.418       .  A
C1859      C1860   1.402       .  A
C1859      C1866   1.509       .  S
C1860      C1861   1.403       .  A
C1860      H1865   1.084       .  S
C1861      C1862   1.412       .  A
C1862      C1863   1.508       .  S
C1863      H1867   1.111       .  S
C1863      H1868   1.111       .  S
C1863      H1869   1.109       .  S
C1866      H1870   1.110       .  S
C1866      H1871   1.111       .  S
C1866      H1872   1.111       .  S
C1873      C1874   1.404       .  A
C1873      C1878   1.404       .  A
C1873      H1880   1.084       .  S
C1874      C1875   1.415       .  A
C1875      C1876   1.402       .  A
C1875      C1882   1.509       .  S
C1876      C1877   1.406       .  A
C1876      H1881   1.084       .  S
C1877      C1878   1.419       .  A
C1878      C1879   1.509       .  S
C1879      H1883   1.111       .  S
C1879      H1884   1.109       .  S
C1879      H1885   1.111       .  S
C1882      H1886   1.109       .  S
C1882      H1887   1.110       .  S
C1882      H1888   1.111       .  S
C1889      C1894   1.400       .  A
C1889      H1896   1.084       .  S
C1890      C1891   1.413       .  A
C1891      C1892   1.399       .  A
C1891      C1898   1.510       .  S
C1892      H1897   1.084       .  S
C1893      C1894   1.413   1_565  A
C1894      C1895   1.510       .  S
C1895      H1899   1.111       .  S
C1895      H1900   1.111       .  S
C1895      H1901   1.109   1_545  S
C1898      H1902   1.111       .  S
C1898      H1903   1.109       .  S
C1898      H1904   1.111       .  S
C1905      C1906   1.404       .  A
C1905      C1910   1.406       .  A
C1905      H1912   1.084       .  S
C1907      C1908   1.400   1_545  A
C1907      C1914   1.510       .  S
C1908      C1909   1.404       .  A
C1908      H1913   1.084       .  S
C1910      C1911   1.508       .  S
C1911      H1915   1.111       .  S
C1911      H1916   1.110       .  S
C1911      H1917   1.110       .  S
C1914      H1918   1.110       .  S
C1914      H1919   1.111       .  S
C1914      H1920   1.111       .  S
C1921      C1922   1.405       .  A
C1921      C1926   1.403       .  A
C1921      H1928   1.083       .  S
C1922      C1923   1.418       .  A
C1923      C1924   1.402       .  A
C1923      C1930   1.510       .  S
C1924      C1925   1.406       .  A
C1924      H1929   1.083       .  S
C1925      C1926   1.422       .  A
C1926      C1927   1.510       .  S
C1927      H1931   1.110       .  S
C1927      H1932   1.111       .  S
C1927      H1933   1.110       .  S
C1930      H1934   1.111       .  S
C1930      H1935   1.111       .  S
C1930      H1936   1.110       .  S
C1937      C1938   1.404       .  A
C1937      C1942   1.403       .  A
C1937      H1944   1.085       .  S
C1938      C1939   1.419       .  A
C1939      C1940   1.401       .  A
C1939      C1946   1.510       .  S
C1940      C1941   1.405       .  A
C1940      H1945   1.084       .  S
C1941      C1942   1.421       .  A
C1942      C1943   1.509       .  S
C1943      H1947   1.110       .  S
C1943      H1948   1.111       .  S
C1943      H1949   1.110       .  S
C1946      H1950   1.110       .  S
C1946      H1951   1.111       .  S
C1946      H1952   1.110       .  S
C1953      C1954   1.406       .  A
C1953      C1958   1.404       .  A
C1953      H1960   1.084       .  S
C1954      C1955   1.418       .  A
C1955      C1956   1.404       .  A
C1955      C1962   1.509       .  S
C1956      C1957   1.405       .  A
C1956      H1961   1.084       .  S
C1957      C1958   1.418       .  A
C1958      C1959   1.510       .  S
C1959      H1963   1.111       .  S
C1959      H1964   1.111       .  S
C1959      H1965   1.109       .  S
C1962      H1966   1.110       .  S
C1962      H1967   1.109       .  S
C1962      H1968   1.111       .  S
C1969      C1970   1.406       .  A
C1969      C1974   1.402       .  A
C1969      H1976   1.084       .  S
C1970      C1971   1.422       .  A
C1971      C1972   1.404       .  A
C1971      C1978   1.509       .  S
C1972      C1973   1.399       .  A
C1972      H1977   1.085       .  S
C1973      C1974   1.413       .  A
C1974      C1975   1.510       .  S
C1975      H1979   1.111       .  S
C1975      H1980   1.109       .  S
C1975      H1981   1.111       .  S
C1978      H1982   1.111       .  S
C1978      H1983   1.109       .  S
C1978      H1984   1.111       .  S
C1985      C1986   1.404       .  A
C1986      C1987   1.418       .  A
C1987      C1988   1.400       .  A
C1987      C1994   1.507       .  S
C1988      H1993   1.084       .  S
C1989      C1990   1.416       .  A
C1990      C1991   1.509       .  S
C1991      H1995   1.111   1_565  S
C1991      H1996   1.110       .  S
C1991      H1997   1.109   1_565  S
C1994      H1998   1.109       .  S
C1994      H1999   1.109       .  S
C1994      H2000   1.111       .  S
C2001      C2006   1.401       .  A
C2001      H2008   1.084       .  S
C2002      C2003   1.415       .  A
C2003      C2010   1.510       .  S
C2004      C2005   1.401       .  A
C2005      C2006   1.414       .  A
C2006      C2007   1.510       .  S
C2007      H2011   1.111       .  S
C2007      H2012   1.109       .  S
C2007      H2013   1.111       .  S
C2010      H2014   1.109       .  S
C2010      H2015   1.111       .  S
C2010      H2016   1.111   1_565  S
C2017      C2022   1.406       .  A
C2017      H2024   1.083       .  S
C2018      C2019   1.420       .  A
C2019      C2026   1.509       .  S
C2020      C2021   1.404       .  A
C2021      C2022   1.420       .  A
C2022      C2023   1.509       .  S
C2023      H2027   1.111       .  S
C2023      H2028   1.110       .  S
C2023      H2029   1.110       .  S
C2026      H2030   1.110       .  S
C2026      H2031   1.110       .  S
C2026      H2032   1.111       .  S
C2033      C2034   1.407       .  A
C2033      C2038   1.403       .  A
C2033      H2040   1.084       .  S
C2034      C2035   1.419       .  A
C2035      C2036   1.403       .  A
C2035      C2042   1.509       .  S
C2036      C2037   1.406       .  A
C2036      H2041   1.084       .  S
C2037      C2038   1.417       .  A
C2038      C2039   1.509       .  S
C2039      H2043   1.111       .  S
C2039      H2044   1.110       .  S
C2039      H2045   1.110       .  S
C2042      H2046   1.110       .  S
C2042      H2047   1.110       .  S
C2042      H2048   1.111       .  S
C2049      C2050   1.401       .  A
C2049      C2054   1.399       .  A
C2049      H2056   1.085       .  S
C2050      C2051   1.412       .  A
C2051      C2052   1.404       .  A
C2051      C2058   1.509       .  S
C2052      C2053   1.411       .  A
C2052      H2057   1.083       .  S
C2053      C2054   1.423       .  A
C2054      C2055   1.511       .  S
C2055      H2059   1.111       .  S
C2055      H2060   1.110       .  S
C2055      H2061   1.110       .  S
C2058      H2062   1.111       .  S
C2058      H2063   1.109       .  S
C2058      H2064   1.111       .  S
C2065      C2066   1.402       .  A
C2065      C2070   1.398       .  A
C2065      H2072   1.084       .  S
C2066      C2067   1.414       .  A
C2067      C2068   1.402       .  A
C2067      C2074   1.510       .  S
C2068      C2069   1.408       .  A
C2068      H2073   1.083       .  S
C2069      C2070   1.421       .  A
C2070      C2071   1.511       .  S
C2071      H2075   1.111       .  S
C2071      H2076   1.109       .  S
C2071      H2077   1.110       .  S
C2074      H2078   1.109       .  S
C2074      H2079   1.111       .  S
C2074      H2080   1.111       .  S
C2081      C2082   1.406       .  A
C2081      C2086   1.403       .  A
C2081      H2088   1.084       .  S
C2083      C2084   1.402       .  A
C2083      C2090   1.510       .  S
C2084      C2085   1.405       .  A
C2084      H2089   1.084       .  S
C2086      C2087   1.510       .  S
C2087      H2091   1.111       .  S
C2087      H2092   1.111       .  S
C2087      H2093   1.110       .  S
C2090      H2094   1.111   1_565  S
C2090      H2095   1.110       .  S
C2090      H2096   1.111       .  S
C2097      C2098   1.403       .  A
C2097      H2104   1.084       .  S
C2098      C2099   1.416       .  A
C2099      C2106   1.508       .  S
C2100      C2101   1.410       .  A
C2100      H2105   1.084       .  S
C2101      C2102   1.419       .  A
C2102      C2103   1.510       .  S
C2103      H2107   1.111   1_565  S
C2103      H2108   1.109       .  S
C2103      H2109   1.110       .  S
C2106      H2110   1.109       .  S
C2106      H2111   1.109       .  S
C2106      H2112   1.111       .  S
C2113      C2114   1.404       .  A
C2113      C2118   1.403       .  A
C2113      H2120   1.085       .  S
C2114      C2115   1.418       .  A
C2115      C2116   1.400       .  A
C2115      C2122   1.510       .  S
C2116      C2117   1.400       .  A
C2116      H2121   1.083       .  S
C2117      C2118   1.416       .  A
C2118      C2119   1.509       .  S
C2119      H2123   1.110       .  S
C2119      H2124   1.111       .  S
C2119      H2125   1.107       .  S
C2122      H2126   1.105       .  S
C2122      H2127   1.111       .  S
C2122      H2128   1.110       .  S
C2129      C2130   1.401       .  A
C2129      C2134   1.400       .  A
C2129      H2136   1.085       .  S
C2130      C2131   1.414       .  A
C2131      C2132   1.399       .  A
C2131      C2138   1.509       .  S
C2132      C2133   1.402       .  A
C2132      H2137   1.085       .  S
C2133      C2134   1.416       .  A
C2134      C2135   1.509       .  S
C2135      H2139   1.110       .  S
C2135      H2140   1.106       .  S
C2135      H2141   1.111       .  S
C2138      H2142   1.111       .  S
C2138      H2143   1.107       .  S
C2138      H2144   1.110       .  S
C2145      H2152   1.084       .  S
C2146      C2147   1.420       .  A
C2147      C2154   1.509       .  S
C2148      C2149   1.404       .  A
C2148      H2153   1.084   1_554  S
C2150      C2151   1.509       .  S
C2151      H2155   1.111       .  S
C2151      H2156   1.111       .  S
C2151      H2157   1.109       .  S
C2154      H2158   1.110       .  S
C2154      H2159   1.110       .  S
C2154      H2160   1.111   1_565  S
C2161      C2162   1.405       .  A
C2161      C2166   1.404   1_554  A
C2161      H2168   1.084       .  S
C2163      C2164   1.405   1_554  A
C2163      C2170   1.509   1_554  S
C2164      C2165   1.404   1_655  A
C2164      H2169   1.084       .  S
C2166      C2167   1.509       .  S
C2167      H2171   1.111   1_556  S
C2167      H2172   1.111   1_556  S
C2167      H2173   1.110       .  S
C2170      H2174   1.109   1_556  S
C2170      H2175   1.111       .  S
C2170      H2176   1.111       .  S
C2177      C2178   1.404       .  A
C2177      C2182   1.400       .  A
C2177      H2184   1.084       .  S
C2178      C2179   1.421       .  A
C2179      C2180   1.401       .  A
C2179      C2186   1.509       .  S
C2180      C2181   1.401       .  A
C2180      H2185   1.084       .  S
C2181      C2182   1.416       .  A
C2182      C2183   1.509       .  S
C2183      H2187   1.111       .  S
C2183      H2188   1.111       .  S
C2183      H2189   1.110       .  S
C2186      H2190   1.110       .  S
C2186      H2191   1.110       .  S
C2186      H2192   1.111       .  S
C2193      C2194   1.401       .  A
C2193      C2198   1.404       .  A
C2193      H2200   1.084       .  S
C2194      C2195   1.413       .  A
C2195      C2196   1.401       .  A
C2195      C2202   1.509       .  S
C2196      C2197   1.404       .  A
C2196      H2201   1.084       .  S
C2197      C2198   1.419       .  A
C2198      C2199   1.509       .  S
C2199      H2203   1.111       .  S
C2199      H2204   1.111       .  S
C2199      H2205   1.109       .  S
C2202      H2206   1.109       .  S
C2202      H2207   1.111       .  S
C2202      H2208   1.111       .  S
C2209      C2214   1.403   1_545  A
C2209      H2216   1.085       .  S
C2210      C2211   1.418       .  A
C2211      C2212   1.402       .  A
C2211      C2218   1.509       .  S
C2212      H2217   1.084       .  S
C2213      C2214   1.419       .  A
C2214      C2215   1.509       .  S
C2215      H2219   1.111       .  S
C2215      H2220   1.109       .  S
C2215      H2221   1.110       .  S
C2218      H2222   1.111       .  S
C2218      H2223   1.110       .  S
C2218      H2224   1.111       .  S
C2225      C2230   1.401       .  A
C2225      H2232   1.083       .  S
C2226      C2227   1.421       .  A
C2227      C2228   1.400   1_565  A
C2227      C2234   1.510       .  S
C2228      H2233   1.084       .  S
C2229      C2230   1.416       .  A
C2230      C2231   1.510       .  S
C2231      H2235   1.111       .  S
C2231      H2236   1.109       .  S
C2231      H2237   1.111       .  S
C2234      H2238   1.110       .  S
C2234      H2239   1.110       .  S
C2234      H2240   1.111       .  S
