geometry optimzed in LAMMPS
_audit_creation_date              2020-12-01 
_audit_creation_method            'lammps2cif' 
_symmetry_space_group_name_H-M    'P1' 
_symmetry_Int_Tables_number       1 
_symmetry_cell_setting            triclinic 
loop_ 
_symmetry_equiv_pos_as_xyz 
  x,y,z 
_cell_length_a                    53.74084013 
_cell_length_b                    53.615667446355836 
_cell_length_c                    53.56890864113088 
_cell_angle_alpha                 90.11201272085887 
_cell_angle_beta                  90.018381988177 
_cell_angle_gamma                 89.95617188286312 
loop_ 
_atom_site_label 
_atom_site_type_symbol 
_atom_site_fract_x 
_atom_site_fract_y 
_atom_site_fract_z 
_atom_site_charge 
N1          N  0.99983306  0.21562905  0.54190830    -0.35900
N2          N  0.03706003  0.21408965  0.50239117    -0.56500
N3          N  0.99767503  0.21323971  0.46520353    -0.35900
N4          N  0.96023306  0.21697139  0.50448519    -0.56500
C5          C  0.02079735  0.22011002  0.55523425     0.27700
C6          C  0.98023642  0.22236245  0.55633524     0.27700
C7          C  0.01762160  0.21809055  0.45046808     0.27700
C8          C  0.97695172  0.21788517  0.45155945     0.27700
C9          C  0.05219661  0.21059560  0.52223412     0.36300
C10         C  0.05119525  0.21068657  0.48178119     0.36300
C11         C  0.94628057  0.21470558  0.52541424     0.36300
C12         C  0.94502221  0.21214658  0.48488699     0.36300
C13         C  0.01442378  0.22943154  0.57854475    -0.21200
C14         C  0.98887023  0.23084484  0.57924337    -0.21200
C15         C  0.00941033  0.22560436  0.42711617    -0.21200
C16         C  0.98382640  0.22551401  0.42781502    -0.21200
C17         C  0.07605727  0.20490066  0.51418349    -0.22200
C18         C  0.07544251  0.20504751  0.48856408    -0.22200
C19         C  0.92202512  0.20862051  0.51907264    -0.22200
C20         C  0.92124687  0.20691688  0.49343638    -0.22200
C21         C  0.04548708  0.21503314  0.54738304    -0.17600
C22         C  0.95473770  0.21971554  0.55001484    -0.17600
C23         C  0.95200100  0.21388582  0.45936873    -0.17600
C24         C  0.04300276  0.21460168  0.45699213    -0.17600
H25         H  0.02688199  0.23454627  0.59358495     0.15300
H26         H  0.97789187  0.23725486  0.59493614     0.15300
H27         H  0.02064585  0.23039572  0.41106971     0.15300
H28         H  0.97166299  0.23033981  0.41245477     0.15300
H29         H  0.09236783  0.20163330  0.52558173     0.13600
H30         H  0.09116001  0.20181474  0.47635140     0.13600
H31         H  0.90645651  0.20597978  0.53160403     0.13600
H32         H  0.90495124  0.20262302  0.48236716     0.13600
H33         H  0.99887345  0.20611323  0.52504722     0.26900
H34         H  0.99806277  0.20457892  0.48251137     0.26900
O35         O  0.23268938  0.21547121  0.27658637    -0.87600
C36         C  0.23442823  0.28941833  0.29684289     0.88400
Mg37       Mg  0.26613025  0.19526164  0.26599442     1.58100
O38         O  0.20928606  0.27833459  0.23692889    -0.87400
O39         O  0.19616003  0.22600454  0.26174088    -0.74700
C40         C  0.32137584  0.26662643  0.18262614     0.93400
O41         O  0.27637326  0.24436558  0.30536144    -0.74500
O42         O  0.32712872  0.25164532  0.20010409    -0.82000
Mg43       Mg  0.23472102  0.23590656  0.31128175     1.58000
C44         C  0.23401172  0.32170079  0.17636305     0.93400
O45         O  0.19377542  0.22865554  0.32337161    -0.80300
H46         H  0.18414478  0.26130604  0.21534523    -0.05600
C47         C  0.28271035  0.29790412  0.23878544     0.88300
O48         O  0.25759475  0.20049195  0.22442229    -0.74800
O49         O  0.22414619  0.26959639  0.29116934    -0.87600
O50         O  0.22380590  0.32522552  0.19760158    -0.80400
C51         C  0.17869639  0.32993486  0.26586028     0.93500
C52         C  0.17271312  0.23964183  0.32175612     0.93300
Mg53       Mg  0.26043036  0.26968455  0.19473949     1.58000
O54         O  0.30031250  0.27744771  0.18173888    -0.80300
O55         O  0.21917526  0.26109033  0.20126683    -0.74500
O56         O  0.17760879  0.30915551  0.27750065    -0.80400
O57         O  0.24579812  0.19993883  0.33200820    -0.82100
O58         O  0.31993382  0.20009223  0.22853180    -0.80400
C59         C  0.20327604  0.26706587  0.21772736     0.87800
O60         O  0.27198310  0.23737817  0.21518946    -0.87500
O61         O  0.26307978  0.29173524  0.22848491    -0.87700
O62         O  0.29968570  0.28214784  0.24361888    -0.74700
Mg63       Mg  0.18976236  0.26779066  0.27031642     1.58000
O64         O  0.19567833  0.33408058  0.24980458    -0.82100
H65         H  0.21014091  0.19083479  0.26002039    -0.05800
O66         O  0.28664518  0.22979477  0.26858345    -0.87400
H67         H  0.31144379  0.24582480  0.29133912    -0.05600
H68         H  0.25709224  0.21488434  0.18942231    -0.05800
C69         C  0.29240264  0.23999014  0.28846803     0.87700
C70         C  0.21296479  0.20986292  0.26610164     0.88300
C71         C  0.26233767  0.21750773  0.20873561     0.88400
H72         H  0.28520132  0.31709954  0.24447368    -0.05800
O73         O  0.23863670  0.30626888  0.28071215    -0.74800
Mg74       Mg  0.30657640  0.24058124  0.23550851     1.58000
H75         H  0.24037337  0.29232961  0.31590881    -0.05800
C76         C  0.26231551  0.18349220  0.32713949     0.93400
O77         O  0.30144987  0.17391971  0.25444552    -0.82000
C78         C  0.31870617  0.17872750  0.23879777     0.93400
O79         O  0.16862192  0.25620135  0.30526067    -0.82000
Mg80       Mg  0.23040062  0.31253098  0.23881507     1.58200
O81         O  0.27406471  0.18386336  0.30654466    -0.80400
O82         O  0.24851545  0.30329984  0.17275300    -0.82100
O83         O  0.76590366  0.24477767  0.71182231    -0.87600
C84         C  0.75597933  0.18937675  0.76351884     0.88400
Mg85       Mg  0.79223370  0.27477815  0.71730702     1.58100
O86         O  0.70679538  0.23268089  0.76023999    -0.87400
O87         O  0.72628152  0.23851995  0.70461796    -0.74700
C88         C  0.76633766  0.31644960  0.83103232     0.93400
O89         O  0.80617713  0.22127752  0.74942573    -0.74500
O90         O  0.78433040  0.31486161  0.81563582    -0.82000
Mg91       Mg  0.78001142  0.20762160  0.71821686     1.58000
C92         C  0.67747717  0.26140456  0.82616560     0.93400
O93         O  0.75789952  0.18939408  0.68603717    -0.80300
H94         H  0.68010005  0.24988654  0.74079699    -0.05600
C95         C  0.75804120  0.24510260  0.81496973     0.88300
O96         O  0.76097371  0.30105832  0.73060366    -0.74800
O97         O  0.75055861  0.20130703  0.74457138    -0.87600
O98         O  0.68067333  0.24061332  0.81504583    -0.80400
C99         C  0.68465954  0.17131069  0.77354885     0.93500
C100        C  0.73774569  0.17707552  0.68382717     0.93300
Mg101      Mg  0.72445565  0.28630146  0.79608680     1.58000
O102        O  0.74626037  0.30415848  0.82831267    -0.80300
O103        O  0.69884151  0.27246032  0.76471956    -0.74500
O104        O  0.69582443  0.17450979  0.75279138    -0.80400
O105        O  0.81086449  0.21392857  0.69049017    -0.82100
O106        O  0.81106175  0.31956238  0.76193586    -0.80400
C107        C  0.69444739  0.25136508  0.75487273     0.87800
O108        O  0.75471319  0.29278819  0.77003125    -0.87500
O109        O  0.73893793  0.24955621  0.80291681    -0.87700
O110        O  0.77851895  0.25596188  0.81028221    -0.74700
Mg111      Mg  0.71335188  0.20682518  0.73056324     1.58000
O112        O  0.68752060  0.18641055  0.79163686    -0.82100
H113        H  0.74721383  0.26371184  0.68572593    -0.05800
O114        O  0.79876735  0.26109048  0.75456301    -0.87400
H115        H  0.82525968  0.24322459  0.77370132    -0.05600
H116        H  0.73600963  0.31963385  0.75219458    -0.05800
C117        C  0.81083059  0.24214877  0.75967258     0.87700
C118        C  0.74672243  0.24948843  0.69999431     0.88300
C119        C  0.75005601  0.30521912  0.75121870     0.88400
H120        H  0.75746993  0.23110927  0.82946157    -0.05800
O121        O  0.74562294  0.19376140  0.78436695    -0.74800
Mg122      Mg  0.79195141  0.28734018  0.78426964     1.58000
H123        H  0.77042059  0.17536341  0.76247781    -0.05800
C124        C  0.82600392  0.23175323  0.68705537     0.93400
O125        O  0.82017943  0.30616759  0.72353370    -0.82000
C126        C  0.82319663  0.32144984  0.74149539     0.93400
O127        O  0.71994174  0.17942137  0.69922906    -0.82000
Mg128      Mg  0.71363392  0.21903992  0.79745463     1.58200
O129        O  0.82410238  0.25234893  0.69885739    -0.80400
O130        O  0.69244361  0.27962060  0.82346990    -0.82100
N131        N  0.49672634  0.03611761  0.23447038    -0.35900
N132        N  0.53422049  0.99815331  0.24307179    -0.56500
N133        N  0.49536989  0.96106792  0.24437237    -0.35900
N134        N  0.45762011  0.99885068  0.23448203    -0.56500
C135        C  0.51779646  0.04908364  0.22966941     0.27700
C136        C  0.47739076  0.04939900  0.22519998     0.27700
C137        C  0.51575510  0.94638621  0.24214246     0.27700
C138        C  0.47532459  0.94687544  0.23888472     0.27700
C139        C  0.54795226  0.01878601  0.24747999     0.36300
C140        C  0.54733089  0.97858578  0.25198997     0.36300
C141        C  0.44348568  0.01974344  0.23554686     0.36300
C142        C  0.44283805  0.97968877  0.24152236     0.36300
C143        C  0.51180891  0.07080325  0.21699137    -0.21200
C144        C  0.48629436  0.07099265  0.21414819    -0.21200
C145        C  0.50857369  0.92260411  0.23487349    -0.21200
C146        C  0.48301230  0.92292054  0.23278975    -0.21200
C147        C  0.57003997  0.01230327  0.25919549    -0.22200
C148        C  0.56957797  0.98678940  0.26218975    -0.22200
C149        C  0.41947027  0.01375172  0.24278350    -0.22200
C150        C  0.41907199  0.98837356  0.24661789    -0.22200
C151        C  0.54186114  0.04285513  0.23852995    -0.17600
C152        C  0.45192784  0.04401980  0.22944551    -0.17600
C153        C  0.45031309  0.95434474  0.24221017    -0.17600
C154        C  0.54026267  0.95337531  0.24887002    -0.17600
H155        H  0.52442986  0.08535964  0.21107596     0.15300
H156        H  0.47543322  0.08577678  0.20575937     0.15300
H157        H  0.52044421  0.90651728  0.23209226     0.15300
H158        H  0.47133272  0.90711539  0.22822320     0.15300
H159        H  0.58512678  0.02459070  0.26448241     0.13600
H160        H  0.58421665  0.97549325  0.27023628     0.13600
H161        H  0.40390925  0.02635524  0.24519240     0.13600
H162        H  0.40311706  0.97756695  0.25248309     0.13600
H163        H  0.49528311  0.02105081  0.24655341     0.26900
H164        H  0.49475361  0.97859097  0.25268564     0.26900
O165        O  0.73134216  0.79844421  0.25421998    -0.87600
C166        C  0.74325418  0.74600928  0.30757289     0.88400
Mg167      Mg  0.70537737  0.79245150  0.22428325     1.58100
O168        O  0.79156720  0.75096710  0.26339778    -0.87400
O169        O  0.77085908  0.80675561  0.25961869    -0.74700
C170        C  0.73248021  0.68110441  0.17729050     0.93400
O171        O  0.69322748  0.75821759  0.27662247    -0.74500
O172        O  0.71429391  0.69601752  0.18007489    -0.82000
Mg173      Mg  0.71775809  0.79028762  0.29123419     1.58000
C174        C  0.82056429  0.68427688  0.23327865     0.93400
O175        O  0.73891039  0.82272886  0.31037666    -0.80300
H176        H  0.81822647  0.77057374  0.24635709    -0.05600
C177        C  0.74147697  0.69463414  0.24946203     0.88300
O178        O  0.73713055  0.78109755  0.19756171    -0.74800
O179        O  0.74834774  0.76541305  0.29632432    -0.87600
O180        O  0.81761383  0.69552112  0.25408468    -0.80400
C181        C  0.81425389  0.73628645  0.32439499     0.93500
C182        C  0.75956421  0.82587591  0.32170781     0.93300
Mg183      Mg  0.77434343  0.71529156  0.20880009     1.58000
O184        O  0.75273036  0.68360178  0.18943440    -0.80300
O185        O  0.79988196  0.74644653  0.22364335    -0.74500
O186        O  0.80375617  0.75749301  0.32180040    -0.80400
O187        O  0.68480522  0.81604705  0.28642169    -0.82100
O188        O  0.68875012  0.74922204  0.17751891    -0.80400
C189        C  0.80396757  0.75644327  0.24477200     0.87800
O190        O  0.74407319  0.74126762  0.20327315    -0.87500
O191        O  0.75981701  0.70786025  0.24541994    -0.87700
O192        O  0.72073612  0.69883229  0.23895677    -0.74700
Mg193      Mg  0.78506228  0.78029538  0.29030164     1.58000
O194        O  0.81073381  0.71878760  0.30877884    -0.82100
H195        H  0.74853743  0.82583240  0.23576003    -0.05800
O196        O  0.70054513  0.75456900  0.23657816    -0.87400
H197        H  0.67534267  0.73354701  0.25412369    -0.05600
H198        H  0.76255897  0.76117765  0.17777859    -0.05800
C199        C  0.68897763  0.74830378  0.25548526     0.87700
C200        C  0.74994109  0.81111726  0.24946141     0.88300
C201        C  0.74842443  0.76095840  0.19213392     0.88400
H202        H  0.74295095  0.67955060  0.26274533    -0.05800
O203        O  0.75327157  0.72535040  0.30189896    -0.74800
Mg204      Mg  0.70720877  0.72613898  0.20886353     1.58000
H205        H  0.72913474  0.74646324  0.32193791    -0.05800
C206        C  0.66940302  0.81888523  0.26867767     0.93400
O207        O  0.67781252  0.78623250  0.19293985    -0.82000
C208        C  0.67570475  0.76906101  0.17670274     0.93400
O209        O  0.77798863  0.81124843  0.31861016    -0.82000
Mg210      Mg  0.78493632  0.71322211  0.27605286     1.58200
O211        O  0.67282091  0.80842546  0.24752587    -0.80400
O212        O  0.80580714  0.68741602  0.21496713    -0.82100
N213        N  0.95916584  0.73505786  0.49877766    -0.35900
N214        N  0.99561901  0.73504248  0.45921441    -0.56500
N215        N  0.03498145  0.73433218  0.49673656    -0.35900
N216        N  0.99836892  0.73619543  0.53643488    -0.56500
C217        C  0.94460570  0.74034781  0.47888751     0.27700
C218        C  0.94608966  0.74120288  0.51940929     0.27700
C219        C  0.04843679  0.73873547  0.47583147     0.27700
C220        C  0.04998944  0.73872287  0.51659211     0.27700
C221        C  0.97499613  0.73020767  0.44559618     0.36300
C222        C  0.01530010  0.73023023  0.44430189     0.36300
C223        C  0.97846681  0.73263923  0.55147171     0.36300
C224        C  0.01889682  0.73228466  0.55054573     0.36300
C225        C  0.92202538  0.74993529  0.48696614    -0.21200
C226        C  0.92302219  0.75064287  0.51256963    -0.21200
C227        C  0.07234601  0.74586040  0.48250009    -0.21200
C228        C  0.07334256  0.74579661  0.50817138    -0.21200
C229        C  0.98155631  0.72241873  0.42181798    -0.22200
C230        C  0.00714452  0.72245123  0.42098312    -0.22200
C231        C  0.98637334  0.72682943  0.57539473    -0.22200
C232        C  0.01199143  0.72673422  0.57484063    -0.22200
C233        C  0.95047069  0.73499242  0.45377660    -0.17600
C234        C  0.95334304  0.73602460  0.54417465    -0.17600
C235        C  0.04375357  0.73475539  0.54201193    -0.17600
C236        C  0.04041110  0.73449857  0.45094490    -0.17600
H237        H  0.90629543  0.75544600  0.47561309     0.15300
H238        H  0.90813817  0.75664812  0.52479981     0.15300
H239        H  0.08767108  0.75017383  0.47013754     0.15300
H240        H  0.08958260  0.75006370  0.51933711     0.15300
H241        H  0.96919974  0.71779622  0.40653738     0.13600
H242        H  0.01844780  0.71776786  0.40492162     0.13600
H243        H  0.97489668  0.72328372  0.59160099     0.13600
H244        H  0.02414088  0.72302247  0.59052116     0.13600
H245        H  0.97549714  0.72466658  0.49845787     0.26900
H246        H  0.01764859  0.72585329  0.49735314     0.26900
O247        O  0.22777509  0.71226685  0.72757655    -0.87600
C248        C  0.20959278  0.78695323  0.73161902     0.88400
Mg249      Mg  0.23702743  0.69048640  0.76055054     1.58100
O250        O  0.26933625  0.77525812  0.70726344    -0.87400
O251        O  0.24379802  0.72400750  0.69178721    -0.74700
C252        C  0.31897793  0.76024021  0.82135327     0.93400
O253        O  0.19931808  0.74130092  0.77189556    -0.74500
O254        O  0.30153156  0.74477363  0.82534021    -0.82000
Mg255      Mg  0.19413629  0.73447511  0.72989400     1.58000
C256        C  0.32962822  0.81674228  0.73468948     0.93400
O257        O  0.18247018  0.72846755  0.68861868    -0.80300
H258        H  0.29130588  0.75880287  0.68202054    -0.05600
C259        C  0.26555915  0.79218246  0.78131077     0.88300
O260        O  0.27892015  0.69559639  0.75329148    -0.74800
O261        O  0.21542300  0.76738775  0.72090653    -0.87600
O262        O  0.30883052  0.81992489  0.72358202    -0.80400
C263        C  0.24106570  0.82892337  0.67900218     0.93500
C264        C  0.18446792  0.74005919  0.66791315     0.93300
Mg265      Mg  0.31017114  0.76457680  0.75940646     1.58000
O266        O  0.32185878  0.77069690  0.80022192    -0.80300
O267        O  0.30461335  0.75760052  0.71745041    -0.74500
O268        O  0.22985461  0.80805692  0.67655426    -0.80400
O269        O  0.17163498  0.70019874  0.73975528    -0.82100
O270        O  0.27436893  0.69315950  0.81416632    -0.80400
C271        C  0.28852926  0.76401911  0.70132665     0.87800
O272        O  0.28881579  0.73200263  0.76881630    -0.87500
O273        O  0.27669336  0.78668766  0.76187744    -0.87700
O274        O  0.25971312  0.77583976  0.79739186    -0.74700
Mg275      Mg  0.23628572  0.76616883  0.68668192     1.58000
O276        O  0.25741470  0.83197198  0.69595165    -0.82100
H277        H  0.24455253  0.68830921  0.70438260    -0.05800
O278        O  0.23490133  0.72434221  0.78204995    -0.87400
H279        H  0.21250279  0.74005421  0.80737076    -0.05600
H280        H  0.31410605  0.70935402  0.75340743    -0.05800
C281        C  0.21546065  0.73508903  0.78802759     0.87700
C282        C  0.23870627  0.70730172  0.70784868     0.88300
C283        C  0.29486964  0.71225725  0.75856111     0.88400
H284        H  0.25991882  0.81131399  0.78431295    -0.05800
O285        O  0.22569313  0.80343128  0.73703352    -0.74800
Mg286      Mg  0.26745183  0.73410886  0.80287037     1.58000
H287        H  0.19042334  0.78987174  0.73700473    -0.05800
C288        C  0.17491977  0.68255182  0.75519864     0.93400
O289        O  0.24732524  0.66789277  0.79582692    -0.82000
C290        C  0.26333877  0.67218692  0.81296645     0.93400
O291        O  0.20144806  0.75621727  0.66449387    -0.82000
Mg292      Mg  0.26759990  0.80866424  0.72968651     1.58200
O293        O  0.19568532  0.67959634  0.76646771    -0.80400
O294        O  0.33276587  0.79873572  0.74970675    -0.82100
N295        N  0.50143291  0.96115289  0.74605983    -0.35900
N296        N  0.46415071  0.99998528  0.74975254    -0.56500
N297        N  0.50356155  0.03722280  0.75309686    -0.35900
N298        N  0.54078551  0.99778001  0.75138766    -0.56500
C299        C  0.48050441  0.94738913  0.74847302     0.27700
C300        C  0.52092625  0.94606892  0.75131431     0.27700
C301        C  0.48365660  0.05093186  0.76050529     0.27700
C302        C  0.52432879  0.05010526  0.75936554     0.27700
C303        C  0.44948800  0.98106424  0.74181661     0.36300
C304        C  0.45044262  0.02105325  0.74795483     0.36300
C305        C  0.55487417  0.97732090  0.74700495     0.36300
C306        C  0.55602375  0.01769406  0.74910630     0.36300
C307        C  0.48673935  0.92324949  0.75534451    -0.21200
C308        C  0.51227226  0.92243672  0.75721627    -0.21200
C309        C  0.49192032  0.07293891  0.77132935    -0.21200
C310        C  0.51755549  0.07244552  0.77055915    -0.21200
C311        C  0.42629983  0.99011785  0.73505150    -0.22200
C312        C  0.42689482  0.01547727  0.73894969    -0.22200
C313        C  0.57924717  0.98423898  0.74219572    -0.22200
C314        C  0.57996981  0.00981861  0.74347543    -0.22200
C315        C  0.45619040  0.95556041  0.74254077    -0.17600
C316        C  0.54629849  0.95242267  0.74847734    -0.17600
C317        C  0.54918416  0.04265034  0.75440559    -0.17600
C318        C  0.45828269  0.04487751  0.75621023    -0.17600
H319        H  0.47423187  0.90769542  0.75816595     0.15300
H320        H  0.52326307  0.90611332  0.76166965     0.15300
H321        H  0.48063903  0.08793189  0.77878568     0.15300
H322        H  0.52981344  0.08694208  0.77739183     0.15300
H323        H  0.41048557  0.97950067  0.72844084     0.13600
H324        H  0.41161905  0.02829203  0.73592922     0.13600
H325        H  0.59491651  0.97211929  0.73839200     0.13600
H326        H  0.59635158  0.02128445  0.74099900     0.13600
H327        H  0.50246118  0.97869574  0.73793690     0.26900
H328        H  0.50304887  0.02130771  0.74202943     0.26900
N329        N  0.26364138  0.53740163  0.99748079    -0.35900
N330        N  0.26033768  0.49986831  0.03699062    -0.56500
N331        N  0.25228401  0.46177947  0.99904889    -0.35900
N332        N  0.25837301  0.49883448  0.95957406    -0.56500
C333        C  0.27031886  0.55116743  0.01760733     0.27700
C334        C  0.26971021  0.55061078  0.97682598     0.27700
C335        C  0.25512466  0.44735107  0.01961307     0.27700
C336        C  0.25435611  0.44671139  0.97882095     0.27700
C337        C  0.25905132  0.52080818  0.05105712     0.36300
C338        C  0.25321667  0.48081522  0.05190862     0.36300
C339        C  0.25788220  0.51909340  0.94451566     0.36300
C340        C  0.25181090  0.47902064  0.94531397     0.36300
C341        C  0.28067222  0.57347116  0.00967537    -0.21200
C342        C  0.28030459  0.57311601  0.98395920    -0.21200
C343        C  0.25896145  0.42281219  0.01234499    -0.21200
C344        C  0.25847558  0.42240346  0.98665231    -0.21200
C345        C  0.25157532  0.51494545  0.07511238    -0.22200
C346        C  0.24767072  0.48966906  0.07558071    -0.22200
C347        C  0.25140247  0.51202028  0.92047197    -0.22200
C348        C  0.24756178  0.48668085  0.92097928    -0.22200
C349        C  0.26530934  0.54509150  0.04284237    -0.17600
C350        C  0.26429438  0.54372327  0.95181020    -0.17600
C351        C  0.25085761  0.45390898  0.95357306    -0.17600
C352        C  0.25259881  0.45539405  0.04475584    -0.17600
H353        H  0.28729334  0.58866679  0.02122788     0.15300
H354        H  0.28663552  0.58798165  0.97189221     0.15300
H355        H  0.26151590  0.40678160  0.02433037     0.15300
H356        H  0.26050530  0.40597083  0.97505910     0.15300
H357        H  0.24903420  0.52758323  0.09068668     0.13600
H358        H  0.24158032  0.47901514  0.09159031     0.13600
H359        H  0.24973958  0.52385869  0.90421019     0.13600
H360        H  0.24238542  0.47518624  0.90518141     0.13600
H361        H  0.25271305  0.52147785  0.99791018     0.26900
H362        H  0.24619467  0.48014102  0.99888401     0.26900
N363        N  0.75328552  0.46200005  0.00476892    -0.35900
N364        N  0.74579798  0.50138038  0.04138846    -0.56500
N365        N  0.74271525  0.53765722  0.00101624    -0.35900
N366        N  0.74765094  0.49786956  0.96430622    -0.56500
C367        C  0.74902814  0.44823642  0.02550872     0.27700
C368        C  0.75147108  0.44649622  0.98488646     0.27700
C369        C  0.73733351  0.55251473  0.02073430     0.27700
C370        C  0.73679015  0.55038799  0.98003095     0.27700
C371        C  0.75051364  0.48232039  0.05719589     0.36300
C372        C  0.74678264  0.52250024  0.05516181     0.36300
C373        C  0.75508300  0.47789502  0.95079178     0.36300
C374        C  0.74801430  0.51764486  0.94868409     0.36300
C375        C  0.74468604  0.42364794  0.01871282    -0.21200
C376        C  0.74629662  0.42253467  0.99310277    -0.21200
C377        C  0.72810026  0.57510282  0.01219006    -0.21200
C378        C  0.72780811  0.57378459  0.98653601    -0.21200
C379        C  0.75402248  0.49130476  0.08120456    -0.22200
C380        C  0.75175747  0.51675608  0.07991064    -0.22200
C381        C  0.75979056  0.48492449  0.92635570    -0.22200
C382        C  0.75530009  0.51009763  0.92501476    -0.22200
C383        C  0.75078564  0.45681702  0.05047724    -0.17600
C384        C  0.75579267  0.45308443  0.95966043    -0.17600
C385        C  0.74098963  0.54227195  0.95517438    -0.17600
C386        C  0.74179767  0.54680307  0.04615872    -0.17600
H387        H  0.74111641  0.40802805  0.03096999     0.15300
H388        H  0.74413802  0.40589233  0.98184602     0.15300
H389        H  0.72253510  0.59105851  0.02327353     0.15300
H390        H  0.72199982  0.58855875  0.97408222     0.15300
H391        H  0.75781469  0.48063903  0.09791482     0.13600
H392        H  0.75336602  0.52954860  0.09548497     0.13600
H393        H  0.76556424  0.47309334  0.91101549     0.13600
H394        H  0.75704219  0.52149924  0.90845529     0.13600
H395        H  0.76007969  0.48009921  0.00433828     0.26900
H396        H  0.75251682  0.52105410  0.00182735     0.26900
O397        O  0.73160385  0.78948777  0.77365118    -0.87600
C398        C  0.71070447  0.71605702  0.76802178     0.88400
Mg399      Mg  0.74256278  0.81174689  0.74206859     1.58100
O400        O  0.77110271  0.72625891  0.79135763    -0.87400
O401        O  0.74703832  0.77767238  0.80948839    -0.74700
C402        C  0.82136168  0.74138948  0.67756377     0.93400
O403        O  0.70362510  0.76277924  0.72800077    -0.74500
O404        O  0.80574046  0.75901388  0.67495079    -0.82000
Mg405      Mg  0.69734479  0.76857449  0.77000128     1.58000
C406        C  0.82823098  0.68053062  0.76262767     0.93400
O407        O  0.68432854  0.77312447  0.81103933    -0.80300
H408        H  0.79455592  0.74000674  0.81689556    -0.05600
C409        C  0.76644501  0.71062291  0.71674569     0.88300
O410        O  0.78408516  0.80414625  0.74988651    -0.74800
O411        O  0.71739691  0.73525936  0.77885662    -0.87600
O412        O  0.80824296  0.68037698  0.77531164    -0.80400
C413        C  0.74318956  0.67437861  0.82093952     0.93500
C414        C  0.68643171  0.76167582  0.83182533     0.93300
Mg415      Mg  0.81243598  0.73417377  0.73904598     1.58000
O416        O  0.82212339  0.72839295  0.69742417    -0.80300
O417        O  0.80803468  0.74026768  0.78146935    -0.74500
O418        O  0.73103136  0.69470998  0.82272387    -0.80400
O419        O  0.67612595  0.80353828  0.76033798    -0.82100
O420        O  0.78068251  0.81097282  0.68845764    -0.80400
C421        C  0.79126927  0.73548634  0.79749642     0.87800
O422        O  0.79327917  0.76874062  0.73159014    -0.87500
O423        O  0.77742651  0.71487350  0.73657687    -0.87700
O424        O  0.76223741  0.72778625  0.70095067    -0.74700
Mg425      Mg  0.73858147  0.73589075  0.81303061     1.58000
O426        O  0.75838835  0.67046780  0.80318924    -0.82100
H427        H  0.74760123  0.81347576  0.79731341    -0.05800
O428        O  0.73968635  0.77925390  0.71874894    -0.87400
H429        H  0.71736136  0.76455022  0.69278398    -0.05600
H430        H  0.81879216  0.78913844  0.74954064    -0.05800
C431        C  0.72012042  0.76904738  0.71227166     0.87700
C432        C  0.74198543  0.79446465  0.79361565     0.88300
C433        C  0.79963382  0.78737515  0.74363360     0.88400
H434        H  0.75984993  0.69195150  0.71294874    -0.05800
O435        O  0.72616037  0.69920517  0.76195266    -0.74800
Mg436      Mg  0.77196228  0.76958072  0.69756780     1.58000
H437        H  0.69134562  0.71386870  0.76298429    -0.05800
C438        C  0.68064307  0.82146115  0.74546917     0.93400
O439        O  0.75440473  0.83566352  0.70887602    -0.82000
C440        C  0.77033761  0.83219924  0.69163995     0.93400
O441        O  0.70399070  0.74620149  0.83571965    -0.82000
Mg442      Mg  0.76786915  0.69298572  0.76890609     1.58200
O443        O  0.70192170  0.82406852  0.73529722    -0.80400
O444        O  0.83274786  0.69768619  0.74687974    -0.82100
N445        N  0.74716279  0.96080723  0.50637482    -0.35900
N446        N  0.74286174  0.99763801  0.46631198    -0.56500
N447        N  0.73799330  0.03730007  0.50313671    -0.35900
N448        N  0.74470830  0.00082743  0.54312526    -0.56500
C449        C  0.75134854  0.94604410  0.48625754     0.27700
C450        C  0.75415552  0.94792119  0.52698961     0.27700
C451        C  0.74213431  0.05097368  0.48228463     0.27700
C452        C  0.74109072  0.05262774  0.52300072     0.27700
C453        C  0.74052552  0.97658483  0.45258252     0.36300
C454        C  0.73773005  0.01691231  0.45086517     0.36300
C455        C  0.74602433  0.98116062  0.55890441     0.36300
C456        C  0.73874389  0.02099893  0.55712497     0.36300
C457        C  0.76048925  0.92320552  0.49422538    -0.21200
C458        C  0.76202449  0.92430209  0.51986247    -0.21200
C459        C  0.74750025  0.07537660  0.48901349    -0.21200
C460        C  0.74684673  0.07642059  0.51467530    -0.21200
C461        C  0.73395821  0.98256926  0.42826384    -0.22200
C462        C  0.73220234  0.00809168  0.42718307    -0.22200
C463        C  0.74109586  0.98897558  0.58309068    -0.22200
C464        C  0.73622030  0.01408177  0.58192624    -0.22200
C465        C  0.74622080  0.95218147  0.46098093    -0.17600
C466        C  0.75293813  0.95650181  0.55211102    -0.17600
C467        C  0.73810163  0.04596494  0.54841886    -0.17600
C468        C  0.73989998  0.04241706  0.45732120    -0.17600
H469        H  0.76530223  0.90726117  0.48277664     0.15300
H470        H  0.76828746  0.90935322  0.53187949     0.15300
H471        H  0.75137554  0.09088247  0.47670420     0.15300
H472        H  0.75018482  0.09287184  0.52592769     0.15300
H473        H  0.73114556  0.96988402  0.41277601     0.13600
H474        H  0.72782386  0.01894021  0.41073651     0.13600
H475        H  0.74117708  0.97783386  0.59990978     0.13600
H476        H  0.73200123  0.02600857  0.59769359     0.13600
H477        H  0.73811322  0.97784115  0.50608541     0.26900
H478        H  0.73090166  0.01932192  0.50380427     0.26900
O479        O  0.73081616  0.28764715  0.23173051    -0.87600
C480        C  0.73115155  0.21477843  0.20903066     0.88400
Mg481      Mg  0.76449061  0.30783908  0.24118102     1.58100
O482        O  0.71049927  0.22592372  0.27047021    -0.87400
O483        O  0.69443848  0.27821598  0.24721488    -0.74700
C484        C  0.82818930  0.23245101  0.31789281     0.93400
O485        O  0.77285551  0.25951639  0.20058458    -0.74500
O486        O  0.83254280  0.24922146  0.30152247    -0.82000
Mg487      Mg  0.73095229  0.26801952  0.19654358     1.58000
C488        C  0.73905900  0.17881406  0.32690941     0.93400
O489        O  0.68948438  0.27564778  0.18615714    -0.80300
H490        H  0.68767199  0.24261731  0.29478325    -0.05600
C491        C  0.78418352  0.20529044  0.26382573     0.88300
O492        O  0.75867164  0.30086145  0.28301229    -0.74800
O493        O  0.72128971  0.23440093  0.21600279    -0.87600
O494        O  0.72565634  0.17906631  0.30731630    -0.80400
C495        C  0.67698423  0.17520557  0.24286136     0.93500
C496        C  0.66878876  0.26406452  0.18748225     0.93300
Mg497      Mg  0.76538050  0.23104273  0.31031130     1.58000
O498        O  0.80653257  0.22303597  0.31994494    -0.80300
O499        O  0.72352191  0.24019534  0.30655029    -0.74500
O500        O  0.67555672  0.19592247  0.23136429    -0.80400
O501        O  0.74074117  0.30367150  0.17620567    -0.82100
O502        O  0.82125504  0.30341388  0.27537264    -0.80400
C503        C  0.70633399  0.23627675  0.29068810     0.87800
O504        O  0.77543352  0.26460045  0.29114031    -0.87500
O505        O  0.76510145  0.21141228  0.27514420    -0.87700
O506        O  0.80123468  0.22096890  0.25900753    -0.74700
Mg507      Mg  0.68814837  0.23659559  0.23856807     1.58000
O508        O  0.69503330  0.17078419  0.25764138    -0.82100
H509        H  0.70922844  0.31304256  0.24847301    -0.05800
O510        O  0.78578419  0.27388818  0.23669131    -0.87400
H511        H  0.80877157  0.25770781  0.21219667    -0.05600
H512        H  0.76075252  0.28615958  0.31781863    -0.05800
C513        C  0.79002506  0.26372837  0.21638533     0.87700
C514        C  0.71148469  0.29389957  0.24250558     0.88300
C515        C  0.76514605  0.28395817  0.29824410     0.88400
H516        H  0.78619999  0.18625393  0.25744325    -0.05800
O517        O  0.73687350  0.19770216  0.22439000    -0.74800
Mg518      Mg  0.80846119  0.26241367  0.26813902     1.58000
H519        H  0.73559395  0.21235803  0.18949243    -0.05800
C520        C  0.75663232  0.32074151  0.18045626     0.93400
O521        O  0.79969517  0.32934335  0.25145231    -0.82000
C522        C  0.81817866  0.32498050  0.26575575     0.93400
O523        O  0.66507199  0.24783836  0.20445306    -0.82000
Mg524      Mg  0.73099184  0.19153589  0.26647478     1.58200
O525        O  0.76944471  0.32116092  0.20048258    -0.80400
O526        O  0.75558109  0.19536591  0.33069696    -0.82100
N527        N  0.99469333  0.54235024  0.25159504    -0.35900
N528        N  0.03401134  0.50528556  0.25670492    -0.56500
N529        N  0.99632584  0.46638219  0.25949382    -0.35900
N530        N  0.95704876  0.50403083  0.25635578    -0.56500
C531        C  0.01461076  0.55734970  0.25496268     0.27700
C532        C  0.97414105  0.55667415  0.25431017     0.27700
C533        C  0.01693570  0.45326013  0.26591629     0.27700
C534        C  0.97618953  0.45275460  0.26626151     0.27700
C535        C  0.04799890  0.52532648  0.25055408     0.36300
C536        C  0.04888726  0.48503604  0.25456624     0.36300
C537        C  0.94232008  0.52334360  0.24955408     0.36300
C538        C  0.94301984  0.48319799  0.25449799     0.36300
C539        C  0.00661191  0.58150324  0.25976560    -0.21200
C540        C  0.98109100  0.58108472  0.25928188    -0.21200
C541        C  0.00978489  0.43083992  0.27659795    -0.21200
C542        C  0.98411997  0.43057092  0.27692261    -0.21200
C543        C  0.07198052  0.51782349  0.24470028    -0.22200
C544        C  0.07255387  0.49229303  0.24723907    -0.22200
C545        C  0.91875780  0.51478385  0.24352428    -0.22200
C546        C  0.91916686  0.48935262  0.24673950    -0.22200
C547        C  0.03976649  0.55040139  0.25164024    -0.17600
C548        C  0.94936169  0.54874337  0.25052692    -0.17600
C549        C  0.95094353  0.45894328  0.26129782    -0.17600
C550        C  0.04196510  0.46042604  0.26122491    -0.17600
H551        H  0.01799064  0.59788393  0.26278993     0.15300
H552        H  0.96903919  0.59706174  0.26188126     0.15300
H553        H  0.02181396  0.41611060  0.28332200     0.15300
H554        H  0.97259985  0.41552829  0.28379712     0.15300
H555        H  0.08752495  0.52956235  0.23955620     0.13600
H556        H  0.08867095  0.48048004  0.24450264     0.13600
H557        H  0.90283463  0.52576841  0.23783935     0.13600
H558        H  0.90361808  0.47684490  0.24388940     0.13600
H559        H  0.99515035  0.52428191  0.24461312     0.26900
H560        H  0.99601230  0.48233374  0.24852886     0.26900
O561        O  0.23178265  0.70445927  0.24321913    -0.87600
C562        C  0.24146921  0.75784241  0.18989478     0.88400
Mg563      Mg  0.20649727  0.70997430  0.27387194     1.58100
O564        O  0.29096087  0.75357819  0.23288085    -0.87400
O565        O  0.27147354  0.69760132  0.23694745    -0.74700
C566        C  0.23391435  0.82087195  0.32175055     0.93400
O567        O  0.19213664  0.74392016  0.22228846    -0.74500
O568        O  0.21614512  0.80547288  0.31923663    -0.82000
Mg569      Mg  0.21703709  0.71244177  0.20665142     1.58000
C570        C  0.31963358  0.82056997  0.26210656     0.93400
O571        O  0.23919592  0.68058965  0.18670866    -0.80300
H572        H  0.31906679  0.73451638  0.24817688    -0.05600
C573        C  0.24050579  0.80847052  0.24846580     0.88300
O574        O  0.23904547  0.72124282  0.29974920    -0.74800
O575        O  0.24693833  0.73840375  0.20095799    -0.87600
O576        O  0.31660796  0.80879500  0.24165767    -0.80400
C577        C  0.31257391  0.76852197  0.17185465     0.93500
C578        C  0.26005271  0.67823103  0.17543735     0.93300
Mg579      Mg  0.27515149  0.78801349  0.28789943     1.58000
O580        O  0.25355611  0.81888534  0.30852582    -0.80300
O581        O  0.30113013  0.75774263  0.27214478    -0.74500
O582        O  0.30135521  0.74773406  0.17417736    -0.80400
O583        O  0.18444461  0.68571969  0.21266368    -0.82100
O584        O  0.19091010  0.75203053  0.32174472    -0.80400
C585        C  0.30448040  0.74818748  0.25071552     0.87800
O586        O  0.24559362  0.76113626  0.29398480    -0.87500
O587        O  0.25932555  0.79568602  0.25172376    -0.87700
O588        O  0.22031745  0.80373039  0.25977955    -0.74700
Mg589      Mg  0.28420499  0.72456299  0.20611515     1.58000
O590        O  0.31011891  0.78600257  0.18775132    -0.82100
H591        H  0.25037858  0.67756873  0.26109048    -0.05800
O592        O  0.20105990  0.74779398  0.26200817    -0.87400
H593        H  0.17469977  0.76830271  0.24550368    -0.05600
H594        H  0.26516696  0.74113513  0.31862875    -0.05800
C595        C  0.18860270  0.75384245  0.24357904     0.87700
C596        C  0.25094025  0.69242012  0.24747972     0.88300
C597        C  0.25049946  0.74138462  0.30481339     0.88400
H598        H  0.24107614  0.82367670  0.23525517    -0.05800
O599        O  0.25181250  0.77847435  0.19512960    -0.74800
Mg600      Mg  0.20828618  0.77583467  0.29002659     1.58000
H601        H  0.22694365  0.75741672  0.17593391    -0.05800
C602        C  0.16936178  0.68365027  0.23089252     0.93400
O603        O  0.17935759  0.71554918  0.30569487    -0.82000
C604        C  0.17774821  0.73226404  0.32244937     0.93400
O605        O  0.27765249  0.69380248  0.17819519    -0.82000
Mg606      Mg  0.28391481  0.79107225  0.22043439     1.58200
O607        O  0.17323067  0.69468561  0.25160805    -0.80400
O608        O  0.30566550  0.81686887  0.28092794    -0.82100
N609        N  0.26142093  0.03859046  0.49514636    -0.35900
N610        N  0.25066001  0.00566321  0.53616138    -0.56500
N611        N  0.24649568  0.96453020  0.50115139    -0.35900
N612        N  0.25610600  0.99758672  0.46005344    -0.56500
C613        C  0.25643394  0.05520744  0.51354162     0.27700
C614        C  0.25962123  0.05089427  0.47323671     0.27700
C615        C  0.23610831  0.95498686  0.52200597     0.27700
C616        C  0.23811891  0.95088582  0.48161886     0.27700
C617        C  0.25875561  0.02582544  0.54890368     0.36300
C618        C  0.25160339  0.98625925  0.55212985     0.36300
C619        C  0.26599194  0.01490607  0.44470144     0.36300
C620        C  0.25764136  0.97545965  0.44801165     0.36300
C621        C  0.25143869  0.07835534  0.50324301    -0.21200
C622        C  0.25332854  0.07562085  0.47776716    -0.21200
C623        C  0.22070286  0.93522399  0.51570959    -0.21200
C624        C  0.22172840  0.93282126  0.49009395    -0.21200
C625        C  0.26489181  0.01925710  0.57314560    -0.22200
C626        C  0.26044407  0.99405861  0.57516495    -0.22200
C627        C  0.27396263  0.00375028  0.42275016    -0.22200
C628        C  0.26867711  0.97869554  0.42485290    -0.22200
C629        C  0.25830636  0.05031742  0.53936936    -0.17600
C630        C  0.26569007  0.04085306  0.44953573    -0.17600
C631        C  0.24688900  0.95305945  0.45685362    -0.17600
C632        C  0.24216313  0.96234135  0.54659366    -0.17600
H633        H  0.24723794  0.09549952  0.51308338     0.15300
H634        H  0.25083523  0.09031715  0.46416675     0.15300
H635        H  0.21018416  0.92352498  0.52831748     0.15300
H636        H  0.21229834  0.91877686  0.47906422     0.15300
H637        H  0.27132581  0.03144728  0.58792285     0.13600
H638        H  0.26275743  0.98292021  0.59183429     0.13600
H639        H  0.28223606  0.01279667  0.40673319     0.13600
H640        H  0.27205436  0.96459534  0.41076424     0.13600
H641        H  0.26873897  0.02077723  0.49750188     0.26900
H642        H  0.26108374  0.97730296  0.50072425     0.26900
O643        O  0.27046254  0.25870158  0.78841208    -0.87600
C644        C  0.25675656  0.31281138  0.73618552     0.88400
Mg645      Mg  0.29786412  0.22956058  0.78290846     1.58100
O646        O  0.21046305  0.26655936  0.74038222    -0.87400
O647        O  0.23070654  0.26337367  0.79625067    -0.74700
C648        C  0.27423668  0.18493308  0.66958205     0.93400
O649        O  0.30886600  0.28318161  0.74997419    -0.74500
O650        O  0.29239996  0.18790971  0.68453202    -0.82000
Mg651      Mg  0.28264202  0.29627241  0.78140874     1.58000
C652        C  0.18393705  0.23473634  0.67351683     0.93400
O653        O  0.25983421  0.31379130  0.81380299    -0.80300
H654        H  0.18546353  0.24759757  0.76041021    -0.05600
C655        C  0.26240099  0.25638149  0.68530207     0.88300
O656        O  0.26747634  0.20214261  0.77034272    -0.74800
O657        O  0.25244819  0.30084843  0.75538402    -0.87600
O658        O  0.18517104  0.25566869  0.68478429    -0.80400
C659        C  0.18478765  0.32620904  0.72529020     0.93500
C660        C  0.23903885  0.32498553  0.81651436     0.93300
Mg661      Mg  0.23137378  0.21340971  0.70466465     1.58000
O662        O  0.25365747  0.19629298  0.67255056    -0.80300
O663        O  0.20518916  0.22627826  0.73610577    -0.74500
O664        O  0.19639561  0.32475585  0.74607307    -0.80400
O665        O  0.31452602  0.29165129  0.80860640    -0.82100
O666        O  0.31742548  0.18456995  0.73865427    -0.80400
C667        C  0.19960726  0.24706265  0.74607113     0.87800
O668        O  0.26156216  0.20892346  0.73054378    -0.87500
O669        O  0.24374910  0.25090787  0.69761993    -0.87700
O670        O  0.28350508  0.24663768  0.68972968    -0.74700
Mg671      Mg  0.21572175  0.29374350  0.76964645     1.58000
O672        O  0.18754234  0.31008924  0.70806983    -0.82100
H673        H  0.25319548  0.23971093  0.81541203    -0.05800
O674        O  0.30368022  0.24287893  0.74541600    -0.87400
H675        H  0.32879019  0.26200803  0.72568993    -0.05600
H676        H  0.24366267  0.18195601  0.74894581    -0.05800
C677        C  0.31454213  0.26244058  0.73992798     0.87700
C678        C  0.25174688  0.25346920  0.80075410     0.88300
C679        C  0.25715952  0.19688206  0.74967160     0.88400
H680        H  0.26084617  0.27029349  0.67080144    -0.05800
O681        O  0.24637599  0.30741963  0.71556690    -0.74800
Mg682      Mg  0.29824697  0.21600165  0.71594761     1.58000
H683        H  0.27014161  0.32784266  0.73681609    -0.05800
C684        C  0.33083676  0.27466794  0.81133302     0.93400
O685        O  0.32617238  0.19825367  0.77698106    -0.82000
C686        C  0.32907777  0.18256135  0.75932039     0.93400
O687        O  0.22123049  0.32214747  0.80107037    -0.82000
Mg688      Mg  0.21627042  0.27965674  0.70273941     1.58200
O689        O  0.32932482  0.25363499  0.80022831    -0.80400
O690        O  0.19984669  0.21760295  0.67707565    -0.82100
N691        N  0.00319756  0.46071778  0.74177617    -0.35900
N692        N  0.96428846  0.49917972  0.74438213    -0.56500
N693        N  0.00241750  0.53774779  0.74654346    -0.35900
N694        N  0.04124883  0.49969027  0.74133811    -0.56500
C695        C  0.98273049  0.44660285  0.73740622     0.27700
C696        C  0.02342470  0.44693728  0.73545192     0.27700
C697        C  0.98193358  0.55245072  0.74593776     0.27700
C698        C  0.02257922  0.55267637  0.74444456     0.27700
C699        C  0.94978184  0.47866731  0.74617490     0.36300
C700        C  0.94941555  0.51904908  0.74897601     0.36300
C701        C  0.05628884  0.47945519  0.74185229     0.36300
C702        C  0.05589744  0.51979465  0.74543894     0.36300
C703        C  0.99010595  0.42327764  0.72893421    -0.21200
C704        C  0.01569961  0.42348374  0.72771773    -0.21200
C705        C  0.98924861  0.57717729  0.74385847    -0.21200
C706        C  0.01481404  0.57730742  0.74275293    -0.21200
C707        C  0.92549900  0.48559268  0.75157187    -0.22200
C708        C  0.92527363  0.51109006  0.75335426    -0.22200
C709        C  0.08068533  0.48677784  0.74598650    -0.22200
C710        C  0.08042707  0.51227154  0.74835093    -0.22200
C711        C  0.95756107  0.45387268  0.74129539    -0.17600
C712        C  0.04871196  0.45462560  0.73689478    -0.17600
C713        C  0.04783430  0.54499380  0.74547334    -0.17600
C714        C  0.95688157  0.54440076  0.74837336    -0.17600
H715        H  0.97827678  0.40771699  0.72395711     0.15300
H716        H  0.02729422  0.40811360  0.72164129     0.15300
H717        H  0.97741847  0.59351673  0.74337065     0.15300
H718        H  0.02637272  0.59376047  0.74125330     0.15300
H719        H  0.90946729  0.47358336  0.75369876     0.13600
H720        H  0.90906224  0.52245206  0.75718923     0.13600
H721        H  0.09702937  0.47500810  0.74693059     0.13600
H722        H  0.09654533  0.52396486  0.75147554     0.13600
H723        H  0.00340739  0.47791958  0.75065020     0.26900
H724        H  0.00276291  0.51889631  0.75054265     0.26900
N725        N  0.49341488  0.26961937  0.03978682    -0.35900
N726        N  0.53419669  0.26278568  0.00423568    -0.56500
N727        N  0.49821911  0.26577427  0.96322044    -0.35900
N728        N  0.45741917  0.27266658  0.99874646    -0.56500
C729        C  0.51248728  0.26684586  0.05613574     0.27700
C730        C  0.47206137  0.27099594  0.05317716     0.27700
C731        C  0.51974918  0.26691581  0.95010773     0.27700
C732        C  0.47953976  0.27190442  0.94735364     0.27700
C733        C  0.54773698  0.26173040  0.02553255     0.36300
C734        C  0.55027884  0.26013989  0.98497180     0.36300
C735        C  0.44107418  0.27227199  0.01789928     0.36300
C736        C  0.44390316  0.27176880  0.97749872     0.36300
C737        C  0.50310818  0.26690353  0.08026435    -0.21200
C738        C  0.47775837  0.26957935  0.07842038    -0.21200
C739        C  0.51452104  0.27316368  0.92551967    -0.21200
C740        C  0.48926332  0.27621982  0.92378318    -0.21200
C741        C  0.57264329  0.25825893  0.01969330    -0.22200
C742        C  0.57422562  0.25713313  0.99409175    -0.22200
C743        C  0.41695406  0.27119755  0.00871853    -0.22200
C744        C  0.41874675  0.27092032  0.98314283    -0.22200
C745        C  0.53816322  0.26402153  0.05021461    -0.17600
C746        C  0.44741233  0.27275798  0.04358551    -0.17600
C747        C  0.45380375  0.27300333  0.95306272    -0.17600
C748        C  0.54408755  0.26216031  0.95927512    -0.17600
H749        H  0.51339679  0.26488065  0.09751516     0.15300
H750        H  0.46496791  0.27008140  0.09401835     0.15300
H751        H  0.52754238  0.27533776  0.91027426     0.15300
H752        H  0.47922391  0.28119148  0.90699321     0.15300
H753        H  0.58814959  0.25684913  0.03250176     0.13600
H754        H  0.59117582  0.25491983  0.98340419     0.13600
H755        H  0.39982928  0.27066753  0.01933426     0.13600
H756        H  0.40328988  0.27033042  0.97019359     0.13600
H757        H  0.49494890  0.27136870  0.02073751     0.26900
H758        H  0.49616199  0.25893330  0.98114435     0.26900
N759        N  0.45868064  0.76795942  0.99920321    -0.35900
N760        N  0.49762936  0.76443665  0.96100609    -0.56500
N761        N  0.53512746  0.76917781  0.99990328    -0.35900
N762        N  0.49630825  0.76986674  0.03828580    -0.56500
C763        C  0.44457258  0.76300627  0.97889328     0.27700
C764        C  0.44401092  0.76554423  0.01957863     0.27700
C765        C  0.54986999  0.76406717  0.98007251     0.27700
C766        C  0.54918235  0.76680746  0.02069167     0.27700
C767        C  0.47753805  0.76631643  0.94590243     0.36300
C768        C  0.51795179  0.76674629  0.94625210     0.36300
C769        C  0.47593743  0.77330838  0.05271301     0.36300
C770        C  0.51629217  0.77408495  0.05302539     0.36300
C771        C  0.42043164  0.75779314  0.98645852    -0.21200
C772        C  0.42011527  0.75923101  0.01206882    -0.21200
C773        C  0.57373672  0.75871962  0.98839868    -0.21200
C774        C  0.57329218  0.76039964  0.01396879    -0.21200
C775        C  0.48517203  0.76930203  0.92135917    -0.22200
C776        C  0.51073244  0.76943538  0.92157344    -0.22200
C777        C  0.48304416  0.77930047  0.07687270    -0.22200
C778        C  0.50860001  0.77986909  0.07705002    -0.22200
C779        C  0.45238106  0.76426878  0.95362553    -0.17600
C780        C  0.45100175  0.77033097  0.04466724    -0.17600
C781        C  0.54142658  0.77161705  0.04551149    -0.17600
C782        C  0.54297029  0.76571858  0.95458799    -0.17600
H783        H  0.40458424  0.75352210  0.97473743     0.15300
H784        H  0.40396633  0.75635860  0.02378123     0.15300
H785        H  0.58995771  0.75438122  0.97724154     0.15300
H786        H  0.58908367  0.75755326  0.02618648     0.15300
H787        H  0.47354117  0.77102608  0.90495199     0.13600
H788        H  0.52264288  0.77138373  0.90540569     0.13600
H789        H  0.47106613  0.78291368  0.09271599     0.13600
H790        H  0.52019513  0.78394189  0.09307104     0.13600
H791        H  0.47671219  0.77535929  0.99893115     0.26900
H792        H  0.51721091  0.77685701  0.99915619     0.26900
C793        C  0.39302852  0.27474981  0.84550924    -0.11200
C794        C  0.38488840  0.27852654  0.87010548     0.11400
C795        C  0.35956580  0.28425905  0.87466848    -0.03000
C796        C  0.34283823  0.28387294  0.85449488    -0.05700
C797        C  0.35068220  0.27847443  0.83006225    -0.16500
C798        C  0.37638598  0.27486203  0.82523779     0.02400
C799        C  0.40329348  0.27661475  0.89072605     0.12400
C800        C  0.35021189  0.29070877  0.90067754     0.63000
H801        H  0.32321033  0.28713771  0.85777667     0.12400
C802        C  0.38747149  0.27183270  0.79937115     0.55100
H803        H  0.41268068  0.27162214  0.84211551     0.08200
C804        C  0.41182127  0.25327218  0.89979071    -0.05600
C805        C  0.42823444  0.25298529  0.92024283    -0.06300
C806        C  0.43612305  0.27509350  0.93175368    -0.15900
C807        C  0.42805748  0.29840950  0.92238373    -0.01500
C808        C  0.41198149  0.29873600  0.90166954    -0.09100
C809        C  0.40331015  0.22878421  0.88829762     0.65200
H810        H  0.43499845  0.23544929  0.92762064     0.10700
C811        C  0.43635771  0.32274879  0.93425544     0.63600
H812        H  0.40576889  0.31632463  0.89395766     0.08000
F813        F  0.39791939  0.24836652  0.79724715    -0.19400
F814        F  0.40599167  0.28944037  0.79607160    -0.15700
F815        F  0.37028792  0.27496166  0.78044641    -0.19200
F816        F  0.36043705  0.31309845  0.90833715    -0.22500
F817        F  0.35682825  0.27221588  0.91737201    -0.24000
F818        F  0.32457410  0.29320813  0.90130667    -0.18000
F819        F  0.42613847  0.34323047  0.92232866    -0.20500
F820        F  0.46195824  0.32479415  0.93302690    -0.21700
F821        F  0.42901842  0.32343400  0.95897454    -0.18800
F822        F  0.41409331  0.20842432  0.89994571    -0.18900
F823        F  0.40981898  0.22782691  0.86336547    -0.22800
F824        F  0.37776856  0.22665665  0.89045770    -0.24400
C825        C  0.15259549  0.38944707  0.72444232    -0.11200
C826        C  0.12769790  0.38210043  0.72120784     0.11400
C827        C  0.12233692  0.35708366  0.71475766    -0.03000
C828        C  0.14159072  0.33930677  0.71606397    -0.05700
C829        C  0.16614973  0.34626444  0.72173027    -0.16500
C830        C  0.17213534  0.37185920  0.72386649     0.02400
C831        C  0.10748987  0.40063739  0.72555133     0.12400
C832        C  0.09664996  0.34955937  0.70564276     0.63000
H833        H  0.13756748  0.31976690  0.71286139     0.12400
C834        C  0.19901378  0.38042723  0.72430748     0.55100
H835        H  0.15657231  0.40896237  0.72785125     0.08200
C836        C  0.09655607  0.40377725  0.74945521    -0.05600
C837        C  0.07731802  0.42143720  0.75240943    -0.06300
C838        C  0.06864451  0.43566300  0.73223686    -0.15900
C839        C  0.07930186  0.43220615  0.70827402    -0.01500
C840        C  0.09883814  0.41486831  0.70539857    -0.09100
C841        C  0.10514631  0.38838067  0.77166532     0.65200
H842        H  0.06884365  0.42434320  0.77052215     0.10700
C843        C  0.06988400  0.44671119  0.68587059     0.63600
H844        H  0.10743722  0.41210779  0.68732328     0.08000
F845        F  0.20981368  0.37443351  0.74689973    -0.19400
F846        F  0.20089018  0.40593447  0.72083328    -0.15700
F847        F  0.21209993  0.36883282  0.70527598    -0.19200
F848        F  0.09130648  0.36238454  0.68391455    -0.22500
F849        F  0.07875645  0.35518365  0.72329531    -0.24000
F850        F  0.09529783  0.32428648  0.70050747    -0.18000
F851        F  0.08168433  0.43949036  0.66405926    -0.20500
F852        F  0.07406912  0.47190505  0.68939401    -0.21700
F853        F  0.04465324  0.44271534  0.68282683    -0.18800
F854        F  0.09249299  0.39471242  0.79327235    -0.18900
F855        F  0.13025572  0.39216261  0.77579649    -0.22800
F856        F  0.10110747  0.36332834  0.76710212    -0.24400
C857        C  0.24509186  0.09955365  0.58914696    -0.11200
C858        C  0.26825367  0.11150104  0.59071656     0.11400
C859        C  0.28804923  0.10362800  0.57514994    -0.03000
C860        C  0.28391859  0.08378484  0.55841232    -0.05700
C861        C  0.26078723  0.07174078  0.55695439    -0.16500
C862        C  0.24079638  0.08005428  0.57207320     0.02400
C863        C  0.27145325  0.13135891  0.60982776     0.12400
C864        C  0.31349929  0.11582437  0.57660688     0.63000
H865        H  0.29885321  0.07717931  0.54653802     0.12400
C866        C  0.21490365  0.06898295  0.56958819     0.55100
H867        H  0.23033101  0.10577210  0.60143949     0.08200
C868        C  0.26288201  0.15605569  0.60611650    -0.05600
C869        C  0.26579255  0.17349413  0.62559033    -0.06300
C870        C  0.27593673  0.16670562  0.64880389    -0.15900
C871        C  0.28362418  0.14167631  0.65275070    -0.01500
C872        C  0.28169436  0.12456241  0.63289692    -0.09100
C873        C  0.24998519  0.16369998  0.58205581     0.65200
H874        H  0.25928250  0.19246095  0.62317932     0.10700
C875        C  0.29196211  0.13252176  0.67827423     0.63600
H876        H  0.28735768  0.10534418  0.63546270     0.08000
F877        F  0.19802977  0.08055054  0.58535063    -0.19400
F878        F  0.21526773  0.04390206  0.57540505    -0.15700
F879        F  0.20657431  0.07190255  0.54534235    -0.19200
F880        F  0.32391955  0.11145262  0.59977997    -0.22500
F881        F  0.31136349  0.14126130  0.57304654    -0.24000
F882        F  0.32955412  0.10655392  0.55863179    -0.18000
F883        F  0.29617655  0.10704548  0.67845284    -0.20500
F884        F  0.27370520  0.13764235  0.69577238    -0.21700
F885        F  0.31384069  0.14419282  0.68516822    -0.18800
F886        F  0.24354330  0.18870569  0.58216001    -0.18900
F887        F  0.22842187  0.15000349  0.57896179    -0.22800
F888        F  0.26548701  0.15948448  0.56191037    -0.24400
C889        C  0.34676158  0.76546407  0.10946493    -0.11200
C890        C  0.37078039  0.77251530  0.11700330     0.11400
C891        C  0.37488945  0.78055096  0.14183945    -0.03000
C892        C  0.35495146  0.77983878  0.15878542    -0.05700
C893        C  0.33123215  0.77140227  0.15170381    -0.16500
C894        C  0.32677367  0.76464985  0.12649410     0.02400
C895        C  0.39134303  0.77139302  0.09848049     0.12400
C896        C  0.40027593  0.78962028  0.15045258     0.63000
H897        H  0.35795612  0.78517894  0.17806482     0.12400
C898        C  0.30101844  0.75727341  0.11748116     0.55100
H899        H  0.34395183  0.76008775  0.09016882     0.08200
C900        C  0.40398955  0.74883929  0.09293782    -0.05600
C901        C  0.42376764  0.74935693  0.07570364    -0.06300
C902        C  0.43080733  0.77150632  0.06373778    -0.15900
C903        C  0.41799469  0.79396523  0.06909507    -0.01500
C904        C  0.39832936  0.79348703  0.08641788    -0.09100
C905        C  0.39644772  0.72436152  0.10500517     0.65200
H906        H  0.43369749  0.73238823  0.07105714     0.10700
C907        C  0.42496206  0.81820974  0.05632353     0.63600
H908        H  0.38813677  0.81039442  0.09070311     0.08000
F909        F  0.29435117  0.73449837  0.12748496    -0.19400
F910        F  0.30006722  0.75521535  0.09172830    -0.15700
F911        F  0.28389591  0.77516747  0.12470592    -0.19200
F912        F  0.40676651  0.81086185  0.13742390    -0.22500
F913        F  0.41800671  0.77138920  0.14629956    -0.24000
F914        F  0.40047095  0.79540105  0.17565663    -0.18000
F915        F  0.42089105  0.81611060  0.03092668    -0.20500
F916        F  0.44979015  0.82349789  0.06050557    -0.21700
F917        F  0.41104829  0.83809677  0.06514969    -0.18800
F918        F  0.41165004  0.70485622  0.09757257    -0.18900
F919        F  0.37229502  0.71848155  0.09836603    -0.22800
F920        F  0.39792093  0.72635401  0.13069384    -0.24400
C921        C  0.21494013  0.86191804  0.37769005    -0.11200
C922        C  0.23624659  0.87666364  0.38062915     0.11400
C923        C  0.25627452  0.87378855  0.36370632    -0.03000
C924        C  0.25437653  0.85570524  0.34474969    -0.05700
C925        C  0.23292998  0.84089754  0.34142139    -0.16500
C926        C  0.21235119  0.84483157  0.35780421     0.02400
C927        C  0.23687605  0.89542818  0.40123451     0.12400
C928        C  0.27955538  0.88984535  0.36548033     0.63000
H929        H  0.27006183  0.85287303  0.33249696     0.12400
C930        C  0.18752444  0.83167131  0.35450621     0.55100
H931        H  0.20015025  0.86402434  0.39123640     0.08200
C932        C  0.22264013  0.91769270  0.40039999    -0.05600
C933        C  0.22600266  0.93561631  0.41933905    -0.06300
C934        C  0.24298179  0.93199920  0.43891986    -0.15900
C935        C  0.25649141  0.90927470  0.44031731    -0.01500
C936        C  0.25278354  0.89117200  0.42157255    -0.09100
C937        C  0.20411785  0.92266030  0.37954533     0.65200
H938        H  0.21560344  0.95292094  0.41888695     0.10700
C939        C  0.27541692  0.90443784  0.46086062     0.63600
H940        H  0.26274820  0.87362821  0.42230665     0.08000
F941        F  0.17890973  0.83512673  0.33041173    -0.19400
F942        F  0.16955677  0.84088215  0.37058860    -0.15700
F943        F  0.19017200  0.80651972  0.35930871    -0.19200
F944        F  0.29240450  0.88448826  0.38715591    -0.22500
F945        F  0.27304498  0.91479983  0.36541729    -0.24000
F946        F  0.29555853  0.88579189  0.34565170    -0.18000
F947        F  0.28850214  0.88254216  0.45682964    -0.20500
F948        F  0.26361329  0.90236449  0.48363959    -0.21700
F949        F  0.29236571  0.92380225  0.46190280    -0.18800
F950        F  0.19434175  0.94651467  0.38091757    -0.18900
F951        F  0.18453676  0.90605430  0.38115171    -0.22800
F952        F  0.21558351  0.92003234  0.35658271    -0.24400
C953        C  0.08808357  0.60121908  0.26286969    -0.11200
C954        C  0.08892889  0.61256909  0.23928140     0.11400
C955        C  0.07382232  0.60320321  0.21969607    -0.03000
C956        C  0.05872460  0.58231705  0.22435484    -0.05700
C957        C  0.05797041  0.57097382  0.24790671    -0.16500
C958        C  0.07222792  0.58093511  0.26775548     0.02400
C959        C  0.10771041  0.63247745  0.23506803     0.12400
C960        C  0.07362340  0.61512507  0.19399408     0.63000
H961        H  0.04716329  0.57467841  0.20964415     0.12400
C962        C  0.07027296  0.57047175  0.29398860     0.55100
H963        H  0.10016823  0.60829137  0.27742496     0.08200
C964        C  0.10556561  0.65681604  0.24521348    -0.05600
C965        C  0.12552053  0.67360195  0.24201036    -0.06300
C966        C  0.14738848  0.66675382  0.22919334    -0.15900
C967        C  0.14901663  0.64251663  0.21854006    -0.01500
C968        C  0.12914138  0.62585410  0.22182159    -0.09100
C969        C  0.08260058  0.66486671  0.25971296     0.65200
H970        H  0.12455993  0.69201498  0.25031002     0.10700
C971        C  0.17224957  0.63347655  0.20526811     0.63600
H972        H  0.13048855  0.60696574  0.21474988     0.08000
F973        F  0.08470292  0.58376584  0.31078408    -0.19400
F974        F  0.07813496  0.54593237  0.29420474    -0.15700
F975        F  0.04585159  0.57159181  0.30204865    -0.19200
F976        F  0.09583381  0.61034083  0.18191404    -0.22500
F977        F  0.07040541  0.64062953  0.19614077    -0.24000
F978        F  0.05449997  0.60591811  0.17930499    -0.18000
F979        F  0.17062219  0.60861894  0.19841256    -0.20500
F980        F  0.19244260  0.63599426  0.22103636    -0.21700
F981        F  0.17597054  0.64727883  0.18380939    -0.18800
F982        F  0.08327111  0.68999829  0.26567644    -0.18900
F983        F  0.08094768  0.65160735  0.28174277    -0.22800
F984        F  0.06146371  0.66057302  0.24562918    -0.24400
C985        C  0.63419718  0.27804933  0.12590165    -0.11200
C986        C  0.61028578  0.26930798  0.13144952     0.11400
C987        C  0.60516851  0.26047989  0.15580347    -0.03000
C988        C  0.62440500  0.26047587  0.17377131    -0.05700
C989        C  0.64879178  0.26847326  0.16819161    -0.16500
C990        C  0.65366755  0.27776661  0.14365059     0.02400
C991        C  0.59141158  0.26837536  0.11090923     0.12400
C992        C  0.57963559  0.25039246  0.16258338     0.63000
H993        H  0.62062283  0.25331130  0.19226126     0.12400
C994        C  0.67937272  0.28636592  0.13544371     0.55100
H995        H  0.63763906  0.28445679  0.10706256     0.08200
C996        C  0.57843808  0.28983944  0.10256894    -0.05600
C997        C  0.56128075  0.28740474  0.08279548    -0.06300
C998        C  0.55626170  0.26426677  0.07152302    -0.15900
C999        C  0.56851902  0.24262076  0.08058079    -0.01500
C1000       C  0.58655378  0.24529424  0.09948310    -0.09100
C1001       C  0.58284584  0.31526635  0.11425028     0.65200
H1002       H  0.55164549  0.30369530  0.07576278     0.10700
C1003       C  0.56321781  0.21633030  0.07146859     0.63600
H1004       H  0.59662512  0.22896676  0.10584994     0.08000
F1005       F  0.67979794  0.29353091  0.11062346    -0.19400
F1006       F  0.69631029  0.26712417  0.13822713    -0.15700
F1007       F  0.68671576  0.30670893  0.14954213    -0.19200
F1008       F  0.57532701  0.22838959  0.14981862    -0.22500
F1009       F  0.56141405  0.26750077  0.15633091    -0.24000
F1010       F  0.57762962  0.24553076  0.18787120    -0.18000
F1011       F  0.58403069  0.20710810  0.05940325    -0.20500
F1012       F  0.55805058  0.20125401  0.09176066    -0.21700
F1013       F  0.54319076  0.21493143  0.05535646    -0.18800
F1014       F  0.56604611  0.33283988  0.10558163    -0.18900
F1015       F  0.60656022  0.32337894  0.10852666    -0.22800
F1016       F  0.58031116  0.31389449  0.13989108    -0.24400
C1017       C  0.90636758  0.40511929  0.24773678    -0.11200
C1018       C  0.89219962  0.40447337  0.26975634     0.11400
C1019       C  0.89824820  0.42086340  0.28965200    -0.03000
C1020       C  0.91766341  0.43826011  0.28626013    -0.05700
C1021       C  0.93146240  0.43920609  0.26401024    -0.16500
C1022       C  0.92591178  0.42230675  0.24445661     0.02400
C1023       C  0.87194861  0.38549441  0.27150869     0.12400
C1024       C  0.88462741  0.41963204  0.31446415     0.63000
H1025       H  0.92233904  0.45129847  0.30099369     0.12400
C1026       C  0.94028064  0.42286016  0.22006603     0.55100
H1027       H  0.90177892  0.39206771  0.23298267     0.08200
C1028       C  0.84812337  0.38939820  0.26098519    -0.05600
C1029       C  0.83095182  0.36952383  0.26083961    -0.06300
C1030       C  0.83683968  0.34559591  0.27018024    -0.15900
C1031       C  0.86072270  0.34208072  0.28146064    -0.01500
C1032       C  0.87772194  0.36218964  0.28178419    -0.09100
C1033       C  0.84106650  0.41424828  0.24925255     0.65200
H1034       H  0.81282259  0.37250457  0.25259070     0.10700
C1035       C  0.86899156  0.31730775  0.29252810     0.63600
H1036       H  0.89621898  0.35970584  0.28941473     0.08000
F1037       F  0.93201917  0.40481516  0.20351892    -0.19400
F1038       F  0.96525998  0.41861670  0.22451664    -0.15700
F1039       F  0.93746661  0.44590657  0.20887215    -0.19200
F1040       F  0.88810410  0.39642631  0.32509467    -0.22500
F1041       F  0.85946249  0.42354416  0.31102219    -0.24000
F1042       F  0.89321059  0.43744078  0.33111326    -0.18000
F1043       F  0.89251254  0.31871878  0.30301360    -0.20500
F1044       F  0.86972696  0.29925727  0.27405645    -0.21700
F1045       F  0.85274794  0.31017066  0.31121388    -0.18800
F1046       F  0.81688937  0.41417232  0.24030697    -0.18900
F1047       F  0.85674245  0.41939802  0.22948639    -0.22800
F1048       F  0.84298710  0.43317974  0.26665595    -0.24400
C1049       C  0.72894198  0.11486183  0.35726107    -0.11200
C1050       C  0.73591585  0.11992966  0.38193712     0.11400
C1051       C  0.74393732  0.14419113  0.38852039    -0.03000
C1052       C  0.74328718  0.16309333  0.37032885    -0.05700
C1053       C  0.73619263  0.15825663  0.34549065    -0.16500
C1054       C  0.72945824  0.13341802  0.33864867     0.02400
C1055       C  0.73600640  0.09908448  0.40024115     0.12400
C1056       C  0.75411190  0.14980203  0.41439912     0.63000
H1057       H  0.74911835  0.18178606  0.37526659     0.12400
C1058       C  0.72414315  0.12592591  0.31175254     0.55100
H1059       H  0.72358862  0.09594150  0.35262084     0.08200
C1060       C  0.71451483  0.09233848  0.41393605    -0.05600
C1061       C  0.71650642  0.07350924  0.43214657    -0.06300
C1062       C  0.73917917  0.06139725  0.43691278    -0.15900
C1063       C  0.76052384  0.06773727  0.42272414    -0.01500
C1064       C  0.75839380  0.08626190  0.40424935    -0.09100
C1065       C  0.68968036  0.10504823  0.40932086     0.65200
H1066       H  0.70041036  0.06820655  0.44307081     0.10700
C1067       C  0.78567923  0.05592175  0.42787639     0.63600
H1068       H  0.77446460  0.09158345  0.39329311     0.08000
F1069       F  0.70241517  0.13711932  0.30367567    -0.19400
F1070       F  0.72126813  0.10039010  0.30915022    -0.15700
F1071       F  0.74372838  0.13305440  0.29658620    -0.19200
F1072       F  0.77550607  0.13603648  0.41837622    -0.22500
F1073       F  0.73675772  0.14368234  0.43239706    -0.24000
F1074       F  0.76004270  0.17476410  0.41725297    -0.18000
F1075       F  0.78421698  0.03029688  0.42559268    -0.20500
F1076       F  0.79320408  0.06193355  0.45181976    -0.21700
F1077       F  0.80370607  0.06424101  0.41140961    -0.18800
F1078       F  0.67123412  0.09589707  0.42483207    -0.18900
F1079       F  0.68233409  0.10112640  0.38489479    -0.22800
F1080       F  0.69175689  0.13039910  0.41354492    -0.24400
C1081       C  0.65002110  0.76588961  0.89333066    -0.11200
C1082       C  0.62545591  0.76522876  0.88443413     0.11400
C1083       C  0.62105862  0.76592879  0.85840213    -0.03000
C1084       C  0.64156171  0.76528833  0.84202718    -0.05700
C1085       C  0.66626088  0.76470967  0.85079138    -0.16500
C1086       C  0.67061250  0.76601914  0.87692217     0.02400
C1087       C  0.60455142  0.76477279  0.90274016     0.12400
C1088       C  0.59477071  0.76760034  0.84803384     0.63000
H1089       H  0.63838073  0.76478979  0.82207040     0.12400
C1090       C  0.69668466  0.76881453  0.88744329     0.55100
H1091       H  0.65291540  0.76626716  0.91333751     0.08200
C1092       C  0.59462666  0.74216240  0.91213067    -0.05600
C1093       C  0.57372626  0.74316840  0.92801097    -0.06300
C1094       C  0.56343623  0.76600039  0.93569034    -0.15900
C1095       C  0.57408145  0.78860942  0.92721211    -0.01500
C1096       C  0.59434573  0.78758136  0.91055692    -0.09100
C1097       C  0.60674435  0.71722749  0.90628192     0.65200
H1098       H  0.56577180  0.72615937  0.93539282     0.10700
C1099       C  0.56428986  0.81365643  0.93613902     0.63600
H1100       H  0.60251978  0.80462726  0.90350807     0.08000
F1101       F  0.70989932  0.74697251  0.88425353    -0.19400
F1102       F  0.69632158  0.77430166  0.91270742    -0.15700
F1103       F  0.70886835  0.78803154  0.87534631    -0.19200
F1104       F  0.58357121  0.78928632  0.85638222    -0.22500
F1105       F  0.58084153  0.74741371  0.85583796    -0.24000
F1106       F  0.59455928  0.76791456  0.82219723    -0.18000
F1107       F  0.56627002  0.81519855  0.96183534    -0.20500
F1108       F  0.53960981  0.81632792  0.92940527    -0.21700
F1109       F  0.57746065  0.83332596  0.92593359    -0.18800
F1110       F  0.59365389  0.69752274  0.91655694    -0.18900
F1111       F  0.63057959  0.71688301  0.91599789    -0.22800
F1112       F  0.60798026  0.71350314  0.88078593    -0.24400
C1113       C  0.85668550  0.61526032  0.76587794    -0.11200
C1114       C  0.88205989  0.62082711  0.76384693     0.11400
C1115       C  0.88983307  0.64603024  0.76297891    -0.03000
C1116       C  0.87174402  0.66501582  0.76392302    -0.05700
C1117       C  0.84622938  0.65958233  0.76539744    -0.16500
C1118       C  0.83847081  0.63418824  0.76663184     0.02400
C1119       C  0.90003733  0.59997971  0.76046242     0.12400
C1120       C  0.91708419  0.65278053  0.75982748     0.63000
H1121       H  0.87737779  0.68436111  0.76263521     0.12400
C1122       C  0.81112328  0.62686050  0.76742374     0.55100
H1123       H  0.85124939  0.59581796  0.76614798     0.08200
C1124       C  0.91023379  0.58660077  0.78081607    -0.05600
C1125       C  0.92916479  0.56905630  0.77607582    -0.06300
C1126       C  0.93717686  0.56376639  0.75169612    -0.15900
C1127       C  0.92569487  0.57587394  0.73122097    -0.01500
C1128       C  0.90739743  0.59403642  0.73604547    -0.09100
C1129       C  0.90088834  0.59053691  0.80726632     0.65200
H1130       H  0.93767694  0.55894850  0.79134480     0.10700
C1131       C  0.93249685  0.56943558  0.70446292     0.63600
H1132       H  0.89878017  0.60403164  0.72075938     0.08000
F1133       F  0.80067302  0.63460821  0.78971540    -0.19400
F1134       F  0.80788917  0.60130001  0.76565716    -0.15700
F1135       F  0.79852467  0.63770119  0.74768775    -0.19200
F1136       F  0.92499757  0.64577613  0.73628409    -0.22500
F1137       F  0.93136806  0.64065400  0.77752316    -0.24000
F1138       F  0.92102607  0.67815247  0.76249264    -0.18000
F1139       F  0.92857340  0.54429756  0.70024863    -0.20500
F1140       F  0.95720574  0.57493401  0.70004567    -0.21700
F1141       F  0.91829017  0.58269218  0.68747371    -0.18800
F1142       F  0.91359848  0.57582701  0.82425447    -0.18900
F1143       F  0.87595314  0.58434851  0.80855805    -0.22800
F1144       F  0.90384230  0.61519022  0.81421826    -0.24400
C1145       C  0.77176675  0.89517781  0.65800412    -0.11200
C1146       C  0.77362735  0.88715785  0.63313515     0.11400
C1147       C  0.77946143  0.86190919  0.62811379    -0.03000
C1148       C  0.77961527  0.84481010  0.64803974    -0.05700
C1149       C  0.77498320  0.85228836  0.67283851    -0.16500
C1150       C  0.77287945  0.87822405  0.67811440     0.02400
C1151       C  0.76805431  0.90524483  0.61271903     0.12400
C1152       C  0.78532360  0.85309203  0.60180290     0.63000
H1153       H  0.78236821  0.82518467  0.64413451     0.12400
C1154       C  0.77273506  0.88822318  0.70464717     0.55100
H1155       H  0.76858876  0.91482994  0.66149760     0.08200
C1156       C  0.74326598  0.91031307  0.60513825    -0.05600
C1157       C  0.73917033  0.92667271  0.58497219    -0.06300
C1158       C  0.75894660  0.93852231  0.57268044    -0.15900
C1159       C  0.78370808  0.93401089  0.58075125    -0.01500
C1160       C  0.78781778  0.91730074  0.60065998    -0.09100
C1161       C  0.72125072  0.89859626  0.61848186     0.65200
H1162       H  0.72040211  0.93071840  0.57881698     0.10700
C1163       C  0.80566076  0.94699771  0.56857717     0.63600
H1164       H  0.80655542  0.91344117  0.60701137     0.08000
F1165       F  0.75038572  0.88291580  0.71613891    -0.19400
F1166       F  0.77597103  0.91384528  0.70520207    -0.15700
F1167       F  0.79199828  0.87755377  0.71804564    -0.19200
F1168       F  0.80649019  0.86502615  0.59332765    -0.22500
F1169       F  0.76572663  0.85846498  0.58597748    -0.24000
F1170       F  0.78963524  0.82764085  0.60084866    -0.18000
F1171       F  0.82790893  0.94100714  0.58014999    -0.20500
F1172       F  0.80255335  0.97255925  0.56997808    -0.21700
F1173       F  0.80748097  0.94000585  0.54381824    -0.18800
F1174       F  0.69881672  0.90542540  0.60777066    -0.18900
F1175       F  0.72091814  0.90621326  0.64315296    -0.22800
F1176       F  0.72306572  0.87288756  0.61754891    -0.24400
C1177       C  0.76067903  0.38533453  0.15070366    -0.11200
C1178       C  0.75662445  0.37944011  0.12558017     0.11400
C1179       C  0.75510214  0.35416270  0.11811318    -0.03000
C1180       C  0.75593171  0.33550049  0.13655424    -0.05700
C1181       C  0.75916189  0.34130718  0.16196915    -0.16500
C1182       C  0.76200251  0.36674944  0.16919319     0.02400
C1183       C  0.75468319  0.40023140  0.10738697     0.12400
C1184       C  0.75304129  0.34701087  0.09074245     0.63000
H1185       H  0.75405356  0.31609618  0.13123090     0.12400
C1186       C  0.76549293  0.37459856  0.19626892     0.55100
H1187       H  0.76249553  0.40483149  0.15570218     0.08200
C1188       C  0.73193381  0.41279037  0.10270065    -0.05600
C1189       C  0.73127391  0.43112324  0.08389152    -0.06300
C1190       C  0.75281824  0.43786549  0.07073326    -0.15900
C1191       C  0.77591603  0.42685931  0.07706903    -0.01500
C1192       C  0.77637579  0.40784150  0.09509362    -0.09100
C1193       C  0.70868783  0.40709760  0.11777659     0.65200
H1194       H  0.71398063  0.44044070  0.07931937     0.10700
C1195       C  0.79996986  0.43551001  0.06508451     0.63600
H1196       H  0.79370926  0.39862312  0.09972523     0.08000
F1197       F  0.74618763  0.36545362  0.21066582    -0.19400
F1198       F  0.76579437  0.40028400  0.19900184    -0.15700
F1199       F  0.78791828  0.36556113  0.20512876    -0.19200
F1200       F  0.77422623  0.35460494  0.07825561    -0.22500
F1201       F  0.73252875  0.35835128  0.08008804    -0.24000
F1202       F  0.75063709  0.32149303  0.08756493    -0.18000
F1203       F  0.80271477  0.46093150  0.06851441    -0.20500
F1204       F  0.79958858  0.43029598  0.03981688    -0.21700
F1205       F  0.82051268  0.42385347  0.07542968    -0.18800
F1206       F  0.68868467  0.42160224  0.11037196    -0.18900
F1207       F  0.71309610  0.41189824  0.14276012    -0.22800
F1208       F  0.70218425  0.38231829  0.11495131    -0.24400
C1209       C  0.71935614  0.58527202  0.90268454    -0.11200
C1210       C  0.74139701  0.59831612  0.89764699     0.11400
C1211       C  0.76326716  0.59282762  0.91137741    -0.03000
C1212       C  0.76218029  0.57445824  0.93002394    -0.05700
C1213       C  0.74019142  0.56136243  0.93501058    -0.16500
C1214       C  0.71842997  0.56651064  0.92101019     0.02400
C1215       C  0.74106855  0.61740738  0.87759141     0.12400
C1216       C  0.78767614  0.60612996  0.90625151     0.63000
H1217       H  0.77855893  0.57006683  0.94096151     0.12400
C1218       C  0.69445884  0.55225450  0.92539110     0.55100
H1219       H  0.70288804  0.58987670  0.89197942     0.08200
C1220       C  0.74249791  0.61085809  0.85202785    -0.05600
C1221       C  0.74239710  0.62997049  0.83403804    -0.06300
C1222       C  0.74080040  0.65524588  0.84084592    -0.15900
C1223       C  0.73977629  0.66173074  0.86661408    -0.01500
C1224       C  0.73952551  0.64255116  0.88450110    -0.09100
C1225       C  0.74377203  0.58377652  0.84377671     0.65200
H1226       H  0.74345195  0.62527516  0.81439265     0.10700
C1227       C  0.73977309  0.68870475  0.87541254     0.63600
H1228       H  0.73835651  0.64701071  0.90419639     0.08000
F1229       F  0.69854482  0.52700442  0.92209551    -0.19400
F1230       F  0.67589438  0.55947985  0.90897862    -0.15700
F1231       F  0.68610658  0.55646989  0.94942914    -0.19200
F1232       F  0.79378745  0.60404746  0.88126854    -0.22500
F1233       F  0.80707152  0.59613575  0.92002338    -0.24000
F1234       F  0.78550546  0.63106746  0.91243631    -0.18000
F1235       F  0.71754008  0.69983833  0.86881268    -0.20500
F1236       F  0.75939675  0.70151996  0.86469140    -0.21700
F1237       F  0.74228723  0.69061853  0.90106525    -0.18800
F1238       F  0.74956558  0.58165349  0.81868798    -0.18900
F1239       F  0.72097762  0.57255754  0.84777762    -0.22800
F1240       F  0.76181605  0.57110695  0.85710998    -0.24400
C1241       C  0.22178975  0.40338209  0.91227486    -0.11200
C1242       C  0.24247158  0.39546423  0.89837904     0.11400
C1243       C  0.26586500  0.40708749  0.90225282    -0.03000
C1244       C  0.26788123  0.42590664  0.92055483    -0.05700
C1245       C  0.24722326  0.43376668  0.93451969    -0.16500
C1246       C  0.22371762  0.42255398  0.93024246     0.02400
C1247       C  0.23875524  0.37645229  0.87837636     0.12400
C1248       C  0.28846557  0.39994804  0.88674643     0.63000
H1249       H  0.28559316  0.43490314  0.92398887     0.12400
C1250       C  0.20067837  0.43144373  0.94402685     0.55100
H1251       H  0.20398511  0.39469445  0.90853955     0.08200
C1252       C  0.24133826  0.35053026  0.88269862    -0.05600
C1253       C  0.24098553  0.33410979  0.86205885    -0.06300
C1254       C  0.23632927  0.34270809  0.83772864    -0.15900
C1255       C  0.23138605  0.36842999  0.83387585    -0.01500
C1256       C  0.23301715  0.38491536  0.85431644    -0.09100
C1257       C  0.24363648  0.34032583  0.90901530     0.65200
H1258       H  0.24418434  0.31435125  0.86475964     0.10700
C1259       C  0.22520692  0.37858488  0.80817539     0.63600
H1260       H  0.23030459  0.40475173  0.85164211     0.08000
F1261       F  0.20380637  0.42852401  0.96945950    -0.19400
F1262       F  0.17968784  0.41821612  0.93700933    -0.15700
F1263       F  0.19659219  0.45637317  0.93885264    -0.19200
F1264       F  0.28383057  0.40459563  0.86180222    -0.22500
F1265       F  0.29375368  0.37490816  0.88971944    -0.24000
F1266       F  0.30936471  0.41338622  0.89362895    -0.18000
F1267       F  0.20300744  0.36842924  0.79999107    -0.20500
F1268       F  0.24397465  0.37255194  0.79155642    -0.21700
F1269       F  0.22258797  0.40427833  0.80834358    -0.18800
F1270       F  0.24611536  0.31462083  0.90910199    -0.18900
F1271       F  0.22247411  0.34640504  0.92239375    -0.22800
F1272       F  0.26410557  0.35040918  0.92092117    -0.24400
C1273       C  0.24742736  0.59838938  0.08633356    -0.11200
C1274       C  0.26910481  0.60096336  0.10065336     0.11400
C1275       C  0.28971648  0.58512305  0.09609689    -0.03000
C1276       C  0.28808722  0.56754802  0.07655822    -0.05700
C1277       C  0.26649344  0.56531679  0.06194931    -0.16500
C1278       C  0.24578972  0.58091929  0.06683398     0.02400
C1279       C  0.26933123  0.62073820  0.12009514     0.12400
C1280       C  0.31292995  0.58629672  0.11222857     0.63000
H1281       H  0.30344833  0.55500145  0.07281600     0.12400
C1282       C  0.22208540  0.57908526  0.05151502     0.55100
H1283       H  0.23182258  0.61051832  0.09045110     0.08200
C1284       C  0.27275228  0.64616002  0.11384582    -0.05600
C1285       C  0.26976551  0.66428412  0.13263114    -0.06300
C1286       C  0.26367061  0.65772473  0.15724507    -0.15900
C1287       C  0.26184081  0.63223496  0.16378296    -0.01500
C1288       C  0.26416739  0.61408489  0.14487542    -0.09100
C1289       C  0.27945835  0.65406058  0.08743872     0.65200
H1290       H  0.27169303  0.68387684  0.12813017     0.10700
C1291       C  0.25841190  0.62432744  0.19068984     0.63600
H1292       H  0.26171979  0.59452241  0.14922422     0.08000
F1293       F  0.20389711  0.59527903  0.06008200    -0.19400
F1294       F  0.21267975  0.55512420  0.05268346    -0.15700
F1295       F  0.22708808  0.58499326  0.02692472    -0.19200
F1296       F  0.30722198  0.57868664  0.13618851    -0.22500
F1297       F  0.32206121  0.61037537  0.11309071    -0.24000
F1298       F  0.33159984  0.57096812  0.10313517    -0.18000
F1299       F  0.23566893  0.63250130  0.19931522    -0.20500
F1300       F  0.27708225  0.63458336  0.20522493    -0.21700
F1301       F  0.25930975  0.59866376  0.19334214    -0.18800
F1302       F  0.28351069  0.67950089  0.08580745    -0.18900
F1303       F  0.26041713  0.64798926  0.07119480    -0.22800
F1304       F  0.30095916  0.64206356  0.07988496    -0.24400
C1305       C  0.38914151  0.14611387  0.77024350    -0.11200
C1306       C  0.38213200  0.12199849  0.76293903     0.11400
C1307       C  0.35712633  0.11745719  0.75575821    -0.03000
C1308       C  0.34003300  0.13749958  0.75584890    -0.05700
C1309       C  0.34734157  0.16186316  0.76221133    -0.16500
C1310       C  0.37251457  0.16638820  0.76883856     0.02400
C1311       C  0.40194875  0.10246462  0.76123787     0.12400
C1312       C  0.34878127  0.09175946  0.74724934     0.63000
H1313       H  0.32089815  0.13444350  0.75028336     0.12400
C1314       C  0.38233920  0.19273339  0.77222126     0.55100
H1315       H  0.40829511  0.14915974  0.77575096     0.08200
C1316       C  0.41898957  0.10180836  0.74101524    -0.05600
C1317       C  0.43715402  0.08286715  0.74028347    -0.06300
C1318       C  0.43906169  0.06490811  0.75916612    -0.15900
C1319       C  0.42268836  0.06606316  0.77991120    -0.01500
C1320       C  0.40430062  0.08491079  0.78055404    -0.09100
C1321       C  0.41792302  0.12096972  0.72017140     0.65200
H1322       H  0.45008088  0.08179170  0.72481306     0.10700
C1323       C  0.42510821  0.04787703  0.80149791     0.63600
H1324       H  0.39159225  0.08615841  0.79619008     0.08000
F1325       F  0.40792788  0.19313264  0.77520876    -0.19400
F1326       F  0.37173889  0.20357104  0.79307712    -0.15700
F1327       F  0.37663330  0.20680110  0.75134065    -0.19200
F1328       F  0.35243789  0.07464144  0.76615336    -0.22500
F1329       F  0.36233952  0.08450243  0.72654446    -0.24000
F1330       F  0.32380835  0.09141164  0.74088661    -0.18000
F1331       F  0.40807897  0.05286459  0.82024314    -0.20500
F1332       F  0.44873894  0.04951081  0.81159929    -0.21700
F1333       F  0.42108943  0.02376079  0.79332435    -0.18800
F1334       F  0.43540570  0.11618880  0.70180673    -0.18900
F1335       F  0.42260712  0.14450580  0.72960240    -0.22800
F1336       F  0.39465611  0.12074673  0.70917642    -0.24400
C1337       C  0.64531276  0.88268939  0.73646854    -0.11200
C1338       C  0.62101397  0.87488110  0.74159795     0.11400
C1339       C  0.61580625  0.84921237  0.74429340    -0.03000
C1340       C  0.63578711  0.83226950  0.74423072    -0.05700
C1341       C  0.66057796  0.84014299  0.74095203    -0.16500
C1342       C  0.66536295  0.86580131  0.73596541     0.02400
C1343       C  0.60147726  0.89424894  0.74411195     0.12400
C1344       C  0.58929450  0.83985245  0.74730258     0.63000
H1345       H  0.63217414  0.81264057  0.74724501     0.12400
C1346       C  0.69135903  0.87575040  0.73092641     0.55100
H1347       H  0.64846488  0.90242045  0.73355052     0.08200
C1348       C  0.59734089  0.90698406  0.76694035    -0.05600
C1349       C  0.57883743  0.92558559  0.76782558    -0.06300
C1350       C  0.56488012  0.93184997  0.74658554    -0.15900
C1351       C  0.56935163  0.91933985  0.72370873    -0.01500
C1352       C  0.58775720  0.90072116  0.72286077    -0.09100
C1353       C  0.61279423  0.90124266  0.79001718     0.65200
H1354       H  0.57529777  0.93566500  0.78500161     0.10700
C1355       C  0.55478614  0.92575805  0.70030276     0.63600
H1356       H  0.59163027  0.89097392  0.70556285     0.08000
F1357       F  0.69146226  0.90131693  0.72732875    -0.19400
F1358       F  0.70078493  0.86482094  0.70950720    -0.15700
F1359       F  0.70675868  0.87063195  0.75097823    -0.19200
F1360       F  0.57526801  0.84686168  0.72684827    -0.22500
F1361       F  0.57872725  0.84983875  0.76860432    -0.24000
F1362       F  0.58832558  0.81411647  0.74912998    -0.18000
F1363       F  0.56350741  0.91289983  0.67964883    -0.20500
F1364       F  0.55669071  0.95099322  0.69538729    -0.21700
F1365       F  0.53003921  0.91963060  0.70358255    -0.18800
F1366       F  0.60539153  0.91534641  0.81037288    -0.18900
F1367       F  0.63756494  0.90639664  0.78538247    -0.22800
F1368       F  0.61049469  0.87636231  0.79629525    -0.24400
C1369       C  0.35138869  0.76909714  0.88405173    -0.11200
C1370       C  0.37640389  0.76686091  0.87687834     0.11400
C1371       C  0.38250453  0.76410467  0.85131638    -0.03000
C1372       C  0.36309063  0.76319982  0.83372877    -0.05700
C1373       C  0.33798212  0.76453509  0.84094778    -0.16500
C1374       C  0.33196010  0.76837811  0.86641830     0.02400
C1375       C  0.39575686  0.76672262  0.89669019     0.12400
C1376       C  0.40931989  0.76130573  0.84272085     0.63000
H1377       H  0.36737302  0.76030754  0.81417720     0.12400
C1378       C  0.30532305  0.77260198  0.87484654     0.55100
H1379       H  0.34720206  0.77118031  0.90372417     0.08200
C1380       C  0.40453720  0.78899501  0.90788384    -0.05600
C1381       C  0.42293209  0.78732536  0.92651210    -0.06300
C1382       C  0.43274159  0.76426063  0.93397429    -0.15900
C1383       C  0.42386051  0.74198186  0.92291489    -0.01500
C1384       C  0.40518521  0.74361543  0.90456245    -0.09100
C1385       C  0.39468587  0.81436288  0.90001180     0.65200
H1386       H  0.42999952  0.80405577  0.93537539     0.10700
C1387       C  0.43433615  0.71672776  0.93026550     0.63600
H1388       H  0.39792853  0.72684344  0.89593550     0.08000
F1389       F  0.29441940  0.79090416  0.86030264    -0.19400
F1390       F  0.30416946  0.78031482  0.89949885    -0.15700
F1391       F  0.29184590  0.75078280  0.87267161    -0.19200
F1392       F  0.41899825  0.73911978  0.85153918    -0.22500
F1393       F  0.42356433  0.78084065  0.85162623    -0.24000
F1394       F  0.41120293  0.76116482  0.81694039    -0.18000
F1395       F  0.42285741  0.69743982  0.91748678    -0.20500
F1396       F  0.43093224  0.71272958  0.95551048    -0.21700
F1397       F  0.45949196  0.71591054  0.92494823    -0.18800
F1398       F  0.40619455  0.83357735  0.91287195    -0.18900
F1399       F  0.36943709  0.81582768  0.90465256    -0.22800
F1400       F  0.39882005  0.81795380  0.87481218    -0.24400
C1401       C  0.09774615  0.59356697  0.73168972    -0.11200
C1402       C  0.10285443  0.60237231  0.75582115     0.11400
C1403       C  0.08994893  0.59239788  0.77652950    -0.03000
C1404       C  0.07219512  0.57360729  0.77231332    -0.05700
C1405       C  0.06706327  0.56479578  0.74818252    -0.16500
C1406       C  0.07990313  0.57485939  0.72744195     0.02400
C1407       C  0.12134137  0.62268203  0.75849201     0.12400
C1408       C  0.09506893  0.60152319  0.80286063     0.63000
H1409       H  0.06208491  0.56557867  0.78782705     0.12400
C1410       C  0.07430766  0.56634284  0.70098715     0.55100
H1411       H  0.10774092  0.60173267  0.71617055     0.08200
C1412       C  0.14699057  0.61820751  0.76245197    -0.05600
C1413       C  0.16330735  0.63862850  0.76280701    -0.06300
C1414       C  0.15519951  0.66320483  0.75834645    -0.15900
C1415       C  0.12927915  0.66768462  0.75486463    -0.01500
C1416       C  0.11288003  0.64717923  0.75509382    -0.09100
C1417       C  0.15851154  0.59248949  0.76554714     0.65200
H1418       H  0.18300190  0.63500183  0.76533843     0.10700
C1419       C  0.11854805  0.69374085  0.75152836     0.63600
H1420       H  0.09315087  0.64998114  0.75201933     0.08000
F1421       F  0.07771729  0.54087636  0.69888397    -0.19400
F1422       F  0.08967673  0.57780385  0.68373111    -0.15700
F1423       F  0.04994267  0.57212302  0.69505731    -0.19200
F1424       F  0.09071875  0.62689919  0.80437056    -0.22500
F1425       F  0.11957188  0.59678195  0.80909226    -0.24000
F1426       F  0.08004174  0.58978192  0.82022190    -0.18000
F1427       F  0.12621201  0.70387044  0.72911431    -0.20500
F1428       F  0.12618089  0.70884011  0.77103451    -0.21700
F1429       F  0.09277056  0.69355871  0.75135116    -0.18800
F1430       F  0.17047476  0.59130467  0.78838399    -0.18900
F1431       F  0.17586196  0.58870788  0.74684862    -0.22800
F1432       F  0.14146921  0.57324474  0.76444274    -0.24400
C1433       C  0.22147637  0.86801424  0.62191304    -0.11200
C1434       C  0.23452091  0.89008378  0.62649707     0.11400
C1435       C  0.24698182  0.89332345  0.64947925    -0.03000
C1436       C  0.24732494  0.87338927  0.66657913    -0.05700
C1437       C  0.23605988  0.85015129  0.66127774    -0.16500
C1438       C  0.22234548  0.84769846  0.63853466     0.02400
C1439       C  0.23645910  0.90850369  0.60587986     0.12400
C1440       C  0.26025702  0.91759443  0.65560187     0.63000
H1441       H  0.25725080  0.87569315  0.68400506     0.12400
C1442       C  0.20999869  0.82350682  0.63062968     0.55100
H1443       H  0.21173328  0.86639518  0.60428296     0.08200
C1444       C  0.25391159  0.90532390  0.58629219    -0.05600
C1445       C  0.25512273  0.92345187  0.56743602    -0.06300
C1446       C  0.23889503  0.94393340  0.56706821    -0.15900
C1447       C  0.22047788  0.94638162  0.58586502    -0.01500
C1448       C  0.22004134  0.92886451  0.60541783    -0.09100
C1449       C  0.27091912  0.88267987  0.58509934     0.65200
H1450       H  0.26868637  0.92171669  0.55257537     0.10700
C1451       C  0.20129038  0.96720141  0.58593131     0.63600
H1452       H  0.20651511  0.93078812  0.62030125     0.08000
F1453       F  0.22799271  0.80521411  0.62836670    -0.19400
F1454       F  0.19807778  0.82552690  0.60779468    -0.15700
F1455       F  0.19232386  0.81656958  0.64804748    -0.19200
F1456       F  0.24325951  0.93695774  0.65598485    -0.22500
F1457       F  0.27819645  0.92252586  0.63778806    -0.24000
F1458       F  0.27185494  0.91673591  0.67866575    -0.18000
F1459       F  0.17898076  0.95870754  0.59560638    -0.20500
F1460       F  0.20973782  0.98665864  0.60060955    -0.21700
F1461       F  0.19648043  0.97599587  0.56215556    -0.18800
F1462       F  0.28769679  0.88425660  0.56555884    -0.18900
F1463       F  0.25684473  0.86138387  0.58163917    -0.22800
F1464       F  0.28433175  0.88049647  0.60700832    -0.24400
C1465       C  0.28138935  0.63913949  0.87445775    -0.11200
C1466       C  0.27083152  0.61558898  0.87076962     0.11400
C1467       C  0.25938490  0.61003132  0.84762946    -0.03000
C1468       C  0.25855147  0.62857808  0.82896809    -0.05700
C1469       C  0.26828573  0.65273248  0.83274199    -0.16500
C1470       C  0.28042794  0.65793526  0.85603133     0.02400
C1471       C  0.27032840  0.59778862  0.89220537     0.12400
C1472       C  0.24754004  0.58471895  0.84294500     0.63000
H1473       H  0.24948511  0.62443840  0.81140537     0.12400
C1474       C  0.29157069  0.68328657  0.86235006     0.55100
H1475       H  0.28979198  0.64287897  0.89245217     0.08200
C1476       C  0.29072741  0.58213864  0.89824009    -0.05600
C1477       C  0.28812986  0.56485120  0.91791184    -0.06300
C1478       C  0.26611432  0.56324528  0.93193034    -0.15900
C1479       C  0.24612584  0.57963105  0.92656606    -0.01500
C1480       C  0.24867340  0.59676726  0.90681725    -0.09100
C1481       C  0.31521071  0.58400859  0.88425312     0.65200
H1482       H  0.30330451  0.55241507  0.92261029     0.10700
C1483       C  0.22200004  0.57853072  0.94125827     0.63600
H1484       H  0.23352752  0.60929061  0.90224311     0.08000
F1485       F  0.30209801  0.68378451  0.88594838    -0.19400
F1486       F  0.27316856  0.70132903  0.86179141    -0.15700
F1487       F  0.31017097  0.68911751  0.84549971    -0.19200
F1488       F  0.22789542  0.58120042  0.85920212    -0.22500
F1489       F  0.26486572  0.56600926  0.84658006    -0.24000
F1490       F  0.23850200  0.58257923  0.81883910    -0.18000
F1491       F  0.20490517  0.59598525  0.93296827    -0.20500
F1492       F  0.21147502  0.55513495  0.93877150    -0.21700
F1493       F  0.22658289  0.58319159  0.96622386    -0.18800
F1494       F  0.33199986  0.56597435  0.89190744    -0.18900
F1495       F  0.32573706  0.60714276  0.88852390    -0.22800
F1496       F  0.31135130  0.58102309  0.85891944    -0.24400
C1497       C  0.41654740  0.90408744  0.71349587    -0.11200
C1498       C  0.40147501  0.89741314  0.73376527     0.11400
C1499       C  0.40366963  0.91054030  0.75667290    -0.03000
C1500       C  0.42112743  0.93001747  0.75851369    -0.05700
C1501       C  0.43661091  0.93627956  0.73843421    -0.16500
C1502       C  0.43420112  0.92339851  0.71544580     0.02400
C1503       C  0.38388474  0.87619525  0.73077987     0.12400
C1504       C  0.38820479  0.90346319  0.77930271     0.63000
H1505       H  0.42346509  0.94002720  0.77593851     0.12400
C1506       C  0.45038436  0.92996168  0.69320973     0.55100
H1507       H  0.41464384  0.89369928  0.69624410     0.08200
C1508       C  0.35986370  0.87930550  0.72052292    -0.05600
C1509       C  0.34312730  0.85912895  0.72132872    -0.06300
C1510       C  0.34982397  0.83577399  0.73143028    -0.15900
C1511       C  0.37489748  0.83217253  0.73950579    -0.01500
C1512       C  0.39131985  0.85266181  0.73924826    -0.09100
C1513       C  0.35206247  0.90380308  0.70864217     0.65200
H1514       H  0.32437409  0.86177101  0.71446136     0.10700
C1515       C  0.38471983  0.80707371  0.74831538     0.63600
H1516       H  0.41008890  0.85068950  0.74636097     0.08000
F1517       F  0.44364850  0.91667381  0.67208196    -0.19400
F1518       F  0.47497255  0.92457909  0.69849819    -0.15700
F1519       F  0.44814379  0.95509840  0.68791628    -0.19200
F1520       F  0.39529546  0.88011955  0.78760625    -0.22500
F1521       F  0.36321649  0.90300774  0.77318254    -0.24000
F1522       F  0.39130006  0.92023201  0.79874547    -0.18000
F1523       F  0.41039427  0.80707351  0.75053396    -0.20500
F1524       F  0.37842724  0.78869858  0.73127639    -0.21700
F1525       F  0.37491729  0.80136589  0.77147948    -0.18800
F1526       F  0.32725503  0.90365466  0.70166023    -0.18900
F1527       F  0.36624203  0.90790725  0.68751741    -0.22800
F1528       F  0.35555840  0.92334314  0.72514961    -0.24400
C1529       C  0.08468130  0.75109641  0.39781177    -0.11200
C1530       C  0.09813614  0.72877019  0.39530495     0.11400
C1531       C  0.09258943  0.70835750  0.41112459    -0.03000
C1532       C  0.07339578  0.71098044  0.42880535    -0.05700
C1533       C  0.05975420  0.73316937  0.43104932    -0.16500
C1534       C  0.06527575  0.75360476  0.41529231     0.02400
C1535       C  0.11850254  0.72783549  0.37648041     0.12400
C1536       C  0.10677440  0.68391602  0.40932151     0.63000
H1537       H  0.06886988  0.69572293  0.44121995     0.12400
C1538       C  0.05104229  0.77801338  0.41724771     0.55100
H1539       H  0.08959853  0.76661212  0.38587854     0.08200
C1540       C  0.11364777  0.72476220  0.35066638    -0.05600
C1541       C  0.13377488  0.72544028  0.33384976    -0.06300
C1542       C  0.15830787  0.72965925  0.34194338    -0.15900
C1543       C  0.16318942  0.73227712  0.36777965    -0.01500
C1544       C  0.14307005  0.73152656  0.38464530    -0.09100
C1545       C  0.08731275  0.72118930  0.34089192     0.65200
H1546       H  0.13039145  0.72351692  0.31400172     0.10700
C1547       C  0.18950842  0.73533849  0.37751661     0.63600
H1548       H  0.14630715  0.73422900  0.40442485     0.08000
F1549       F  0.02608914  0.77403878  0.41246223    -0.19400
F1550       F  0.05958775  0.79550956  0.40031945    -0.15700
F1551       F  0.05366730  0.78781586  0.44099048    -0.19200
F1552       F  0.13171103  0.68785280  0.41418819    -0.22500
F1553       F  0.10421958  0.67399304  0.38563592    -0.24000
F1554       F  0.09810901  0.66650391  0.42627833    -0.18000
F1555       F  0.19847480  0.75859678  0.37119257    -0.20500
F1556       F  0.20476756  0.71724169  0.36724496    -0.21700
F1557       F  0.19055178  0.73305113  0.40323343    -0.18800
F1558       F  0.08690247  0.71757515  0.31530031    -0.18900
F1559       F  0.07308633  0.74202220  0.34617093    -0.22800
F1560       F  0.07655598  0.70060171  0.35198916    -0.24400
C1561       C  0.88112390  0.72743259  0.64147617    -0.11200
C1562       C  0.87454858  0.73587340  0.61769931     0.11400
C1563       C  0.84981484  0.74342778  0.61283869    -0.03000
C1564       C  0.83273962  0.74379628  0.63274215    -0.05700
C1565       C  0.83960601  0.73675680  0.65712218    -0.16500
C1566       C  0.86426591  0.72798721  0.66152022     0.02400
C1567       C  0.89439629  0.73671652  0.59852323     0.12400
C1568       C  0.84156329  0.75110920  0.58683057     0.63000
H1569       H  0.81385519  0.75002778  0.62944462     0.12400
C1570       C  0.87345708  0.72031023  0.68724459     0.55100
H1571       H  0.90006284  0.72111148  0.64431057     0.08200
C1572       C  0.91173473  0.75659839  0.59746393    -0.05600
C1573       C  0.93081929  0.75562380  0.57954235    -0.06300
C1574       C  0.93337100  0.73518443  0.56339930    -0.15900
C1575       C  0.91643962  0.71496310  0.56495418    -0.01500
C1576       C  0.89708855  0.71616875  0.58256842    -0.09100
C1577       C  0.91035005  0.77847597  0.61548682     0.65200
H1578       H  0.94406002  0.77076187  0.57800584     0.10700
C1579       C  0.91903988  0.69205190  0.54840805     0.63600
H1580       H  0.88392787  0.70096822  0.58419623     0.08000
F1581       F  0.87005166  0.73969380  0.70398637    -0.19400
F1582       F  0.89854781  0.71439976  0.68719564    -0.15700
F1583       F  0.86062843  0.69945801  0.69524616    -0.19200
F1584       F  0.84402313  0.73113752  0.57066088    -0.22500
F1585       F  0.85601483  0.77063670  0.57833003    -0.24000
F1586       F  0.81693560  0.75873541  0.58643208    -0.18000
F1587       F  0.90286453  0.67326117  0.55546964    -0.20500
F1588       F  0.94302138  0.68281369  0.54995878    -0.21700
F1589       F  0.91387042  0.69810593  0.52389492    -0.18800
F1590       F  0.92824892  0.79630137  0.61035263    -0.18900
F1591       F  0.91412185  0.77018982  0.63960798    -0.22800
F1592       F  0.88727709  0.78977566  0.61398847    -0.24400
C1593       C  0.09699523  0.71228397  0.58371058    -0.11200
C1594       C  0.10443843  0.73463704  0.59511140     0.11400
C1595       C  0.09236955  0.75723881  0.58861717    -0.03000
C1596       C  0.07225104  0.75644445  0.57170868    -0.05700
C1597       C  0.06449273  0.73398874  0.56066133    -0.16500
C1598       C  0.07722659  0.71157006  0.56642569     0.02400
C1599       C  0.12506890  0.73382843  0.61371206     0.12400
C1600       C  0.10104174  0.78208037  0.59918991     0.63000
H1601       H  0.06259806  0.77342720  0.56661848     0.12400
C1602       C  0.06993941  0.68705672  0.55426777     0.55100
H1603       H  0.10683474  0.69533989  0.58857368     0.08200
C1604       C  0.12062067  0.72911582  0.63928766    -0.05600
C1605       C  0.14066807  0.73066770  0.65618624    -0.06300
C1606       C  0.16509440  0.73596203  0.64824007    -0.15900
C1607       C  0.16980009  0.73819156  0.62219643    -0.01500
C1608       C  0.14954572  0.73744567  0.60542820    -0.09100
C1609       C  0.09480712  0.72222415  0.64856104     0.65200
H1610       H  0.13721495  0.72827315  0.67594676     0.10700
C1611       C  0.19599979  0.74052163  0.61190595     0.63600
H1612       H  0.15259548  0.74002477  0.58561456     0.08000
F1613       F  0.04545446  0.68153773  0.55987520    -0.19400
F1614       F  0.08462535  0.66749015  0.56247188    -0.15700
F1615       F  0.07257567  0.68880709  0.52865920    -0.19200
F1616       F  0.12565280  0.78606044  0.59284447    -0.22500
F1617       F  0.09891256  0.78211987  0.62489154    -0.24000
F1618       F  0.08718062  0.80180913  0.59000375    -0.18000
F1619       F  0.19656017  0.73774763  0.58621298    -0.20500
F1620       F  0.21106658  0.72228377  0.62216572    -0.21700
F1621       F  0.20552643  0.76371272  0.61749487    -0.18800
F1622       F  0.09444155  0.71836711  0.67410061    -0.18900
F1623       F  0.08708145  0.70046306  0.63705564    -0.22800
F1624       F  0.07805616  0.74100041  0.64310254    -0.24400
C1625       C  0.61351166  0.77480937  0.14353433    -0.11200
C1626       C  0.62062005  0.77187708  0.11860364     0.11400
C1627       C  0.64614519  0.76949162  0.11242472    -0.03000
C1628       C  0.66379893  0.76909612  0.13190416    -0.05700
C1629       C  0.65657452  0.77143036  0.15698342    -0.16500
C1630       C  0.63097959  0.77408047  0.16298415     0.02400
C1631       C  0.60055109  0.77130700  0.09961073     0.12400
C1632       C  0.65457862  0.76724623  0.08546816     0.63000
H1633       H  0.68339499  0.76683656  0.12774649     0.12400
C1634       C  0.62191391  0.77481436  0.18981759     0.55100
H1635       H  0.59389493  0.77703449  0.14763311     0.08200
C1636       C  0.58602353  0.74966448  0.09538770    -0.05600
C1637       C  0.56670591  0.75075393  0.07773391    -0.06300
C1638       C  0.56106197  0.77287071  0.06500151    -0.15900
C1639       C  0.57487148  0.79484021  0.07009905    -0.01500
C1640       C  0.59459807  0.79353286  0.08724829    -0.09100
C1641       C  0.59060948  0.72569028  0.10975673     0.65200
H1642       H  0.55569510  0.73431679  0.07370338     0.10700
C1643       C  0.56956804  0.82012931  0.05853103     0.63600
H1644       H  0.60528506  0.81019593  0.09136257     0.08000
F1645       F  0.59618585  0.77528649  0.19129765    -0.19400
F1646       F  0.63084491  0.79594305  0.20151656    -0.15700
F1647       F  0.63018877  0.75385898  0.20236604    -0.19200
F1648       F  0.64729171  0.78814210  0.07226880    -0.22500
F1649       F  0.64408705  0.74634223  0.07461379    -0.24000
F1650       F  0.68019778  0.76520189  0.08360262    -0.18000
F1651       F  0.56480987  0.83717088  0.07736780    -0.20500
F1652       F  0.54940153  0.82013076  0.04253843    -0.21700
F1653       F  0.59025110  0.82793271  0.04533296    -0.18800
F1654       F  0.57544472  0.70649929  0.10151734    -0.18900
F1655       F  0.58575507  0.72949650  0.13481122    -0.22800
F1656       F  0.61506118  0.71819743  0.10694507    -0.24400
C1657       C  0.89883056  0.59749084  0.26178762    -0.11200
C1658       C  0.89546239  0.60695979  0.23759679     0.11400
C1659       C  0.91018979  0.59762066  0.21772909    -0.03000
C1660       C  0.92719065  0.57824055  0.22267566    -0.05700
C1661       C  0.93006031  0.56836463  0.24674064    -0.16500
C1662       C  0.91594709  0.57824004  0.26675555     0.02400
C1663       C  0.87617556  0.62657245  0.23389641     0.12400
C1664       C  0.90809726  0.60818505  0.19153180     0.63000
H1665       H  0.93865023  0.57072677  0.20782541     0.12400
C1666       C  0.91931788  0.56875817  0.29323733     0.55100
H1667       H  0.88778428  0.60533816  0.27678206     0.08200
C1668       C  0.85056202  0.62051683  0.23230698    -0.05600
C1669       C  0.83305403  0.64003831  0.23095266    -0.06300
C1670       C  0.84038213  0.66516681  0.23138153    -0.15900
C1671       C  0.86596557  0.67120458  0.23192135    -0.01500
C1672       C  0.88354564  0.65171599  0.23349035    -0.09100
C1673       C  0.84178290  0.59355348  0.23256870     0.65200
H1674       H  0.81334310  0.63584336  0.23047521     0.10700
C1675       C  0.87444888  0.69809629  0.23019864     0.63600
H1676       H  0.90320308  0.65595695  0.23479122     0.08000
F1677       F  0.91489373  0.54338527  0.29410343    -0.19400
F1678       F  0.90314687  0.58028746  0.30974108    -0.15700
F1679       F  0.94335107  0.57338184  0.30119259    -0.19200
F1680       F  0.91424928  0.63320552  0.19174060    -0.22500
F1681       F  0.88405025  0.60552183  0.18279956    -0.24000
F1682       F  0.92391511  0.59618753  0.17500615    -0.18000
F1683       F  0.86642919  0.71126989  0.25084862    -0.20500
F1684       F  0.86453729  0.70887130  0.20895902    -0.21700
F1685       F  0.90010290  0.69996238  0.22894006    -0.18800
F1686       F  0.81627016  0.59176176  0.22951081    -0.18900
F1687       F  0.84788101  0.58254080  0.25506097    -0.22800
F1688       F  0.85297847  0.58036885  0.21342457    -0.24400
C1689       C  0.75581027  0.88763966  0.35677104    -0.11200
C1690       C  0.75832264  0.87942081  0.38153029     0.11400
C1691       C  0.76265117  0.85378884  0.38632136    -0.03000
C1692       C  0.76377551  0.83714372  0.36601267    -0.05700
C1693       C  0.76102091  0.84531823  0.34130079    -0.16500
C1694       C  0.75784955  0.87105160  0.33642024     0.02400
C1695       C  0.75590818  0.89800617  0.40209595     0.12400
C1696       C  0.76614316  0.84403996  0.41272144     0.63000
H1697       H  0.76624026  0.81736372  0.36930558     0.12400
C1698       C  0.75829892  0.88105563  0.30995798     0.55100
H1699       H  0.75245900  0.90728175  0.35352079     0.08200
C1700       C  0.77509417  0.91518219  0.40795170    -0.05600
C1701       C  0.77144057  0.93199205  0.42783855    -0.06300
C1702       C  0.74920085  0.93240652  0.44155650    -0.15900
C1703       C  0.72994724  0.91541512  0.43558736    -0.01500
C1704       C  0.73363327  0.89852530  0.41577213    -0.09100
C1705       C  0.79907634  0.91613478  0.39298415     0.65200
H1706       H  0.78570337  0.94548070  0.43251364     0.10700
C1707       C  0.70536464  0.91571969  0.44952204     0.63600
H1708       H  0.71898577  0.88567431  0.41053933     0.08000
F1709       F  0.78084289  0.87509051  0.29902341    -0.19400
F1710       F  0.75555484  0.90673169  0.30938602    -0.15700
F1711       F  0.73935619  0.87070204  0.29600877    -0.19200
F1712       F  0.74470169  0.84768541  0.42648053    -0.22500
F1713       F  0.78562284  0.85645959  0.42412097    -0.24000
F1714       F  0.77149676  0.81877375  0.41297268    -0.18000
F1715       F  0.69360161  0.93833877  0.44574405    -0.20500
F1716       F  0.70935384  0.91241824  0.47478398    -0.21700
F1717       F  0.68962935  0.89691208  0.44147526    -0.18800
F1718       F  0.81618384  0.93237608  0.40345464    -0.18900
F1719       F  0.79410008  0.92420411  0.36900998    -0.22800
F1720       F  0.80984321  0.89273014  0.39194395    -0.24400
C1721       C  0.75671117  0.60013326  0.09069908    -0.11200
C1722       C  0.73415740  0.60224871  0.10371721     0.11400
C1723       C  0.71350116  0.58755647  0.09650016    -0.03000
C1724       C  0.71675827  0.56963191  0.07759021    -0.05700
C1725       C  0.73947381  0.56713142  0.06495391    -0.16500
C1726       C  0.75964217  0.58298240  0.07102960     0.02400
C1727       C  0.73235539  0.62149570  0.12352096     0.12400
C1728       C  0.68794213  0.59161252  0.10787374     0.63000
H1729       H  0.70148299  0.55761989  0.07216258     0.12400
C1730       C  0.78395301  0.58189782  0.05663608     0.55100
H1731       H  0.77192362  0.61230360  0.09595804     0.08200
C1732       C  0.74019642  0.61707973  0.14837160    -0.05600
C1733       C  0.73921371  0.63690630  0.16561894    -0.06300
C1734       C  0.73077250  0.66071431  0.15869460    -0.15900
C1735       C  0.72335384  0.66512763  0.13363778    -0.01500
C1736       C  0.72423290  0.64527328  0.11650499    -0.09100
C1737       C  0.74972554  0.59166981  0.15655383     0.65200
H1738       H  0.74522587  0.63404249  0.18470167     0.10700
C1739       C  0.71562418  0.69085745  0.12460956     0.63600
H1740       H  0.71889069  0.64818763  0.09722842     0.08000
F1741       F  0.80130928  0.59856192  0.06597035    -0.19400
F1742       F  0.77970508  0.58783636  0.03189622    -0.15700
F1743       F  0.79397962  0.55818784  0.05800032    -0.19200
F1744       F  0.67930997  0.61500219  0.10134400    -0.22500
F1745       F  0.68908188  0.59000824  0.13357925    -0.24000
F1746       F  0.67093064  0.57411562  0.09949656    -0.18000
F1747       F  0.71255320  0.69152200  0.09894970    -0.20500
F1748       F  0.73365940  0.70819188  0.13084103    -0.21700
F1749       F  0.69326313  0.69755992  0.13546971    -0.18800
F1750       F  0.75730719  0.59178214  0.18126460    -0.18900
F1751       F  0.76984502  0.58467458  0.14207626    -0.22800
F1752       F  0.73114850  0.57405426  0.15398933    -0.24400
C1753       C  0.87091125  0.71723243  0.36308319    -0.11200
C1754       C  0.86805061  0.73235307  0.38415513     0.11400
C1755       C  0.84646356  0.74728646  0.38670241    -0.03000
C1756       C  0.82890025  0.74739836  0.36715530    -0.05700
C1757       C  0.83194121  0.73257946  0.34560343    -0.16500
C1758       C  0.85295268  0.71638233  0.34404134     0.02400
C1759       C  0.88865010  0.73269159  0.40265463     0.12400
C1760       C  0.84216409  0.76325017  0.40978001     0.63000
H1761       H  0.81280250  0.75949802  0.36842369     0.12400
C1762       C  0.85716394  0.69871076  0.32222375     0.55100
H1763       H  0.88776364  0.70626006  0.36155076     0.08200
C1764       C  0.89358928  0.71221790  0.41862470    -0.05600
C1765       C  0.91427858  0.71350559  0.43469051    -0.06300
C1766       C  0.92970396  0.73460252  0.43539395    -0.15900
C1767       C  0.92425449  0.75535819  0.42006823    -0.01500
C1768       C  0.90414385  0.75372306  0.40336556    -0.09100
C1769       C  0.87711756  0.68917843  0.41874638     0.65200
H1770       H  0.91861119  0.69804657  0.44693861     0.10700
C1771       C  0.93902241  0.77940841  0.42209758     0.63600
H1772       H  0.90019355  0.76899112  0.39076684     0.08000
F1773       F  0.83793916  0.68160424  0.32097526    -0.19400
F1774       F  0.87910912  0.68537224  0.32453218    -0.15700
F1775       F  0.85842258  0.71212578  0.30027722    -0.19200
F1776       F  0.85860205  0.78305651  0.40997408    -0.22500
F1777       F  0.84568638  0.74916417  0.43109957    -0.24000
F1778       F  0.81822002  0.77277639  0.41047453    -0.18000
F1779       F  0.96370906  0.77512021  0.41633643    -0.20500
F1780       F  0.93740386  0.78860978  0.44617614    -0.21700
F1781       F  0.93012187  0.79753635  0.40603841    -0.18800
F1782       F  0.88276488  0.67350889  0.43846543    -0.18900
F1783       F  0.88032447  0.67590877  0.39684301    -0.22800
F1784       F  0.85239603  0.69603081  0.42094068    -0.24400
C1785       C  0.41122213  0.90266024  0.27153554    -0.11200
C1786       C  0.39455740  0.89729638  0.25215645     0.11400
C1787       C  0.39533013  0.91145713  0.22985564    -0.03000
C1788       C  0.41397444  0.92971863  0.22718311    -0.05700
C1789       C  0.43113228  0.93463301  0.24633647    -0.16500
C1790       C  0.42949608  0.92127379  0.26912963     0.02400
C1791       C  0.37615165  0.87701043  0.25609643     0.12400
C1792       C  0.37630389  0.90756041  0.20922270     0.63000
H1793       H  0.41525840  0.94049931  0.21015723     0.12400
C1794       C  0.44661007  0.92690602  0.29101521     0.55100
H1795       H  0.40984047  0.89193308  0.28859168     0.08200
C1796       C  0.38174700  0.85178309  0.25065299    -0.05600
C1797       C  0.36300924  0.83370352  0.25375824    -0.06300
C1798       C  0.33933447  0.83997145  0.26292710    -0.15900
C1799       C  0.33414812  0.86518186  0.26938944    -0.01500
C1800       C  0.35282363  0.88326784  0.26594425    -0.09100
C1801       C  0.40751350  0.84401632  0.24196242     0.65200
H1802       H  0.36664645  0.81442292  0.24890275     0.10700
C1803       C  0.30873316  0.87323418  0.27879372     0.63600
H1804       H  0.34924498  0.90264888  0.27042975     0.08000
F1805       F  0.47069879  0.91991924  0.28536609    -0.19400
F1806       F  0.43952118  0.91416027  0.31230945    -0.15700
F1807       F  0.44605434  0.95214140  0.29637509    -0.19200
F1808       F  0.35269211  0.91232322  0.21829298    -0.22500
F1809       F  0.37727181  0.88328120  0.20059022    -0.24000
F1810       F  0.38045591  0.92328428  0.18918025    -0.18000
F1811       F  0.30358506  0.86125640  0.30096086    -0.20500
F1812       F  0.29071493  0.86724904  0.26134157    -0.21700
F1813       F  0.30754258  0.89867616  0.28317946    -0.18800
F1814       F  0.40871844  0.81875445  0.23671324    -0.18900
F1815       F  0.42466949  0.84922746  0.26047950    -0.22800
F1816       F  0.41402076  0.85684037  0.22059583    -0.24400
C1817       C  0.59785593  0.08315229  0.22106287    -0.11200
C1818       C  0.59848149  0.09999773  0.24109500     0.11400
C1819       C  0.57952779  0.09908137  0.25947124    -0.03000
C1820       C  0.56159582  0.07993183  0.25806133    -0.05700
C1821       C  0.56156750  0.06246423  0.23848134    -0.16500
C1822       C  0.57976556  0.06425712  0.21938557     0.02400
C1823       C  0.61875862  0.11895805  0.24150345     0.12400
C1824       C  0.57791878  0.11852180  0.28008572     0.63000
H1825       H  0.54722548  0.07851526  0.27215923     0.12400
C1826       C  0.57898827  0.04864819  0.19570152     0.55100
H1827       H  0.61165174  0.08505795  0.20643435     0.08200
C1828       C  0.64254669  0.11363935  0.25140789    -0.05600
C1829       C  0.66103368  0.13222881  0.25059562    -0.06300
C1830       C  0.65671969  0.15598514  0.24012985    -0.15900
C1831       C  0.63280051  0.16091924  0.22943073    -0.01500
C1832       C  0.61442385  0.14211032  0.23025415    -0.09100
C1833       C  0.64843912  0.08827131  0.26257753     0.65200
H1834       H  0.67917624  0.12820052  0.25835666     0.10700
C1835       C  0.62608530  0.18576879  0.21745339     0.63600
H1836       H  0.59621631  0.14531588  0.22220423     0.08000
F1837       F  0.60274822  0.04521584  0.18631986    -0.19400
F1838       F  0.56488435  0.06103358  0.17804826    -0.15700
F1839       F  0.56889057  0.02529683  0.19951939    -0.19200
F1840       F  0.57593253  0.14204739  0.26976314    -0.22500
F1841       F  0.59895834  0.11760012  0.29487154    -0.24000
F1842       F  0.55738047  0.11480728  0.29523313    -0.18000
F1843       F  0.64156635  0.19024959  0.19733119    -0.20500
F1844       F  0.62831799  0.20481141  0.23476988    -0.21700
F1845       F  0.60183664  0.18612370  0.20869215    -0.18800
F1846       F  0.67245224  0.08716318  0.27188108    -0.18900
F1847       F  0.64602074  0.07002161  0.24448478    -0.22800
F1848       F  0.63226939  0.08314134  0.28194145    -0.24400
C1849       C  0.62898510  0.87550103  0.28427577    -0.11200
C1850       C  0.60952013  0.87229109  0.26719692     0.11400
C1851       C  0.60790980  0.84987416  0.25329933    -0.03000
C1852       C  0.62708579  0.83215893  0.25566913    -0.05700
C1853       C  0.64756841  0.83594764  0.27159539    -0.16500
C1854       C  0.64774174  0.85739898  0.28736587     0.02400
C1855       C  0.59182244  0.89329408  0.26335879     0.12400
C1856       C  0.58606886  0.84471083  0.23600815     0.63000
H1857       H  0.62649791  0.81532190  0.24455764     0.12400
C1858       C  0.66776512  0.86181458  0.30689780     0.55100
H1859       H  0.62967458  0.89276364  0.29477071     0.08200
C1860       C  0.57270250  0.89898924  0.28062654    -0.05600
C1861       C  0.55651004  0.91898481  0.27536034    -0.06300
C1862       C  0.55889975  0.93321958  0.25349347    -0.15900
C1863       C  0.57794180  0.92736038  0.23614444    -0.01500
C1864       C  0.59450167  0.90781190  0.24175954    -0.09100
C1865       C  0.56957988  0.88417131  0.30456068     0.65200
H1866       H  0.54175713  0.92372944  0.28830094     0.10700
C1867       C  0.58012309  0.94093127  0.21137098     0.63600
H1868       H  0.60950009  0.90329255  0.22902293     0.08000
F1869       F  0.66786501  0.84235991  0.32383401    -0.19400
F1870       F  0.66386818  0.88364522  0.32018441    -0.15700
F1871       F  0.69071301  0.86356408  0.29547700    -0.19200
F1872       F  0.58559778  0.86186145  0.21680559    -0.22500
F1873       F  0.56405380  0.84627374  0.24925686    -0.24000
F1874       F  0.58741823  0.82114980  0.22548794    -0.18000
F1875       F  0.58583627  0.96573143  0.21530401    -0.20500
F1876       F  0.55784213  0.93930356  0.19855240    -0.21700
F1877       F  0.59856722  0.93077910  0.19643052    -0.18800
F1878       F  0.54784165  0.89045288  0.31692045    -0.18900
F1879       F  0.58934493  0.88891257  0.32037983    -0.22800
F1880       F  0.56878453  0.85891167  0.29936668    -0.24400
C1881       C  0.61427811  0.26648051  0.85841191    -0.11200
C1882       C  0.62139837  0.26391024  0.88352392     0.11400
C1883       C  0.64681287  0.26025761  0.88948692    -0.03000
C1884       C  0.66449378  0.26079736  0.87012022    -0.05700
C1885       C  0.65743599  0.26327240  0.84504322    -0.16500
C1886       C  0.63193116  0.26575361  0.83890698     0.02400
C1887       C  0.60171401  0.26392140  0.90310854     0.12400
C1888       C  0.65508188  0.25459833  0.91599875     0.63000
H1889       H  0.68405907  0.25827795  0.87430968     0.12400
C1890       C  0.62346457  0.26716783  0.81196013     0.55100
H1891       H  0.59466547  0.26852307  0.85421994     0.08200
C1892       C  0.59343874  0.28620308  0.91471284    -0.05600
C1893       C  0.57553764  0.28464138  0.93384507    -0.06300
C1894       C  0.56470280  0.26181272  0.94054067    -0.15900
C1895       C  0.57175526  0.23976280  0.92777877    -0.01500
C1896       C  0.59063682  0.24112013  0.90957238    -0.09100
C1897       C  0.60280616  0.31153714  0.90628311     0.65200
H1898       H  0.56914128  0.30137112  0.94322293     0.10700
C1899       C  0.55886869  0.21514284  0.93298688     0.63600
H1900       H  0.59667941  0.22442833  0.89989384     0.08000
F1901       F  0.59815557  0.27168977  0.81009622    -0.19400
F1902       F  0.62853240  0.24482351  0.80014381    -0.15700
F1903       F  0.63590510  0.28614834  0.79979084    -0.19200
F1904       F  0.64420290  0.23262052  0.92386769    -0.22500
F1905       F  0.64807493  0.27363890  0.93191574    -0.24000
F1906       F  0.68064779  0.25183036  0.91768308    -0.18000
F1907       F  0.56851782  0.19594764  0.91861847    -0.20500
F1908       F  0.53378284  0.21720017  0.92759379    -0.21700
F1909       F  0.56170166  0.20888952  0.95784854    -0.18800
F1910       F  0.59149763  0.33080751  0.91926982    -0.18900
F1911       F  0.59768727  0.31474261  0.88119962    -0.22800
F1912       F  0.62818303  0.31327824  0.90995393    -0.24400
C1913       C  0.88597816  0.35440815  0.74089631    -0.11200
C1914       C  0.87891033  0.37939874  0.73802306     0.11400
C1915       C  0.85339162  0.38532271  0.73457607    -0.03000
C1916       C  0.83557546  0.36595150  0.73568546    -0.05700
C1917       C  0.84265870  0.34101717  0.73929895    -0.16500
C1918       C  0.86829687  0.33503752  0.74153539     0.02400
C1919       C  0.89879965  0.39882777  0.73917089     0.12400
C1920       C  0.84507612  0.41198517  0.72995240     0.63000
H1921       H  0.81594903  0.37010078  0.73373248     0.12400
C1922       C  0.87689928  0.30831509  0.74528347     0.55100
H1923       H  0.90559385  0.35026070  0.74300533     0.08200
C1924       C  0.90929054  0.40674842  0.76215242    -0.05600
C1925       C  0.92884580  0.42422203  0.76183184    -0.06300
C1926       C  0.93776314  0.43442889  0.73945840    -0.15900
C1927       C  0.92673845  0.42711457  0.71649105    -0.01500
C1928       C  0.90782425  0.40894533  0.71679081    -0.09100
C1929       C  0.90003536  0.39668556  0.78694248     0.65200
H1930       H  0.93730302  0.43028348  0.77916931     0.10700
C1931       C  0.93356920  0.43806815  0.69126490     0.63600
H1932       H  0.89980462  0.40272296  0.69928136     0.08000
F1933       F  0.90253805  0.30662968  0.74732494    -0.19400
F1934       F  0.86960484  0.29382280  0.72520409    -0.15700
F1935       F  0.86653546  0.29884028  0.76690244    -0.19200
F1936       F  0.85571059  0.42080707  0.70820569    -0.22500
F1937       F  0.85228105  0.42702480  0.74965407    -0.24000
F1938       F  0.81949837  0.41374767  0.72744747    -0.18000
F1939       F  0.94071646  0.41905078  0.67532342    -0.20500
F1940       F  0.95268411  0.45524574  0.69228094    -0.21700
F1941       F  0.91290580  0.44983924  0.68135510    -0.18800
F1942       F  0.90980386  0.40985630  0.80693088    -0.18900
F1943       F  0.90697614  0.37198634  0.78934630    -0.22800
F1944       F  0.87439832  0.39844461  0.78823812    -0.24400
C1945       C  0.71650856  0.09931346  0.59060736    -0.11200
C1946       C  0.73807609  0.10361370  0.60468684     0.11400
C1947       C  0.75932153  0.08841252  0.60095056    -0.03000
C1948       C  0.75883975  0.07052775  0.58172706    -0.05700
C1949       C  0.73735379  0.06635235  0.56743440    -0.16500
C1950       C  0.71557829  0.08047788  0.57228928     0.02400
C1951       C  0.73725773  0.12314931  0.62433845     0.12400
C1952       C  0.78198069  0.09041703  0.61778955     0.63000
H1953       H  0.77501740  0.05900685  0.57813913     0.12400
C1954       C  0.69131831  0.07512863  0.55881690     0.55100
H1955       H  0.70024886  0.11064330  0.59442795     0.08200
C1956       C  0.74268495  0.14847502  0.61928371    -0.05600
C1957       C  0.74241521  0.16570222  0.63917383    -0.06300
C1958       C  0.73579625  0.15847717  0.66346011    -0.15900
C1959       C  0.72954866  0.13319798  0.66826642    -0.01500
C1960       C  0.73041607  0.11596027  0.64847942    -0.09100
C1961       C  0.74813790  0.15725235  0.59292422     0.65200
H1962       H  0.74711092  0.18506330  0.63588552     0.10700
C1963       C  0.72258341  0.12419977  0.69423131     0.63600
H1964       H  0.72580771  0.09655921  0.65165926     0.08000
F1965       F  0.69377833  0.08039094  0.53370632    -0.19400
F1966       F  0.67190997  0.08936468  0.56816031    -0.15700
F1967       F  0.68509467  0.05027288  0.56167278    -0.19200
F1968       F  0.77532150  0.08474877  0.64204997    -0.22500
F1969       F  0.79150466  0.11433255  0.61709942    -0.24000
F1970       F  0.80064277  0.07406909  0.61065816    -0.18000
F1971       F  0.69977123  0.13408485  0.70094148    -0.20500
F1972       F  0.74042183  0.13153568  0.71136391    -0.21700
F1973       F  0.72080649  0.09846353  0.69527021    -0.18800
F1974       F  0.75401262  0.18238083  0.59224336    -0.18900
F1975       F  0.72740544  0.15345947  0.57811022    -0.22800
F1976       F  0.76794944  0.14409371  0.58303329    -0.24400
C1977       C  0.76171119  0.34922077  0.89395929    -0.11200
C1978       C  0.76530032  0.37405161  0.88660898     0.11400
C1979       C  0.77100283  0.37960004  0.86143366    -0.03000
C1980       C  0.77226650  0.35988926  0.84417597    -0.05700
C1981       C  0.76756337  0.33515616  0.85123847    -0.16500
C1982       C  0.76236686  0.32953847  0.87654112     0.02400
C1983       C  0.76240568  0.39395463  0.90562222     0.12400
C1984       C  0.77557443  0.40619678  0.85280516     0.63000
H1985       H  0.77617668  0.36374226  0.82472318     0.12400
C1986       C  0.75764270  0.30299893  0.88513109     0.55100
H1987       H  0.75762549  0.34550993  0.91339975     0.08200
C1988       C  0.73876761  0.40386846  0.91185042    -0.05600
C1989       C  0.73748021  0.42339202  0.92935143    -0.06300
C1990       C  0.75890015  0.43265435  0.94106440    -0.15900
C1991       C  0.78247439  0.42235154  0.93526632    -0.01500
C1992       C  0.78381219  0.40303488  0.91750401    -0.09100
C1993       C  0.71501955  0.39350386  0.90046423     0.65200
H1994       H  0.71966953  0.43141629  0.93438853     0.10700
C1995       C  0.80604928  0.43203394  0.94748492     0.63600
H1996       H  0.80161914  0.39496634  0.91252275     0.08000
F1997       F  0.73518649  0.29463289  0.87572386    -0.19400
F1998       F  0.75666657  0.30134966  0.91090754    -0.15700
F1999       F  0.77656728  0.28756764  0.87684475    -0.19200
F2000       F  0.79682759  0.41536759  0.86406049    -0.22500
F2001       F  0.75565192  0.42126294  0.85910254    -0.24000
F2002       F  0.77872254  0.40754931  0.82718456    -0.18000
F2003       F  0.80413142  0.43024117  0.97315417    -0.20500
F2004       F  0.80962616  0.45671603  0.94100471    -0.21700
F2005       F  0.82681715  0.41862593  0.94007354    -0.18800
F2006       F  0.69427725  0.40695574  0.90783880    -0.18900
F2007       F  0.71184180  0.36906219  0.90796391    -0.22800
F2008       F  0.71624669  0.39426365  0.87470754    -0.24400
C2009       C  0.62582251  0.13327503  0.78558912    -0.11200
C2010       C  0.63024064  0.11233121  0.77056612     0.11400
C2011       C  0.65345485  0.10970876  0.75835142    -0.03000
C2012       C  0.67130680  0.12873669  0.76109197    -0.05700
C2013       C  0.66672237  0.15017652  0.77558305    -0.16500
C2014       C  0.64376185  0.15215365  0.78872533     0.02400
C2015       C  0.60955820  0.09423777  0.76689662     0.12400
C2016       C  0.65924224  0.08703671  0.74229475     0.63000
H2017       H  0.68889366  0.12729324  0.75133935     0.12400
C2018       C  0.63753520  0.17445785  0.80513585     0.55100
H2019       H  0.60779629  0.13492423  0.79447001     0.08200
C2020       C  0.60293487  0.07654989  0.78533590    -0.05600
C2021       C  0.58292440  0.06031228  0.78056626    -0.06300
C2022       C  0.56958763  0.06117891  0.75807052    -0.15900
C2023       C  0.57628244  0.07875528  0.73955613    -0.01500
C2024       C  0.59588639  0.09543694  0.74458710    -0.09100
C2025       C  0.61696319  0.07475943  0.80987468     0.65200
H2026       H  0.57749043  0.04661718  0.79436007     0.10700
C2027       C  0.56322164  0.07943145  0.71444251     0.63600
H2028       H  0.60097517  0.10944054  0.73096966     0.08000
F2029       F  0.65400699  0.17563883  0.82495563    -0.19400
F2030       F  0.61374545  0.17302135  0.81493399    -0.15700
F2031       F  0.63898791  0.19611432  0.79126804    -0.19200
F2032       F  0.64314594  0.08597137  0.72220759    -0.22500
F2033       F  0.65671657  0.06556195  0.75629089    -0.24000
F2034       F  0.68326516  0.08769283  0.73303209    -0.18000
F2035       F  0.53838334  0.08527569  0.71767611    -0.20500
F2036       F  0.56512722  0.05637483  0.70297912    -0.21700
F2037       F  0.57357908  0.09702757  0.69865915    -0.18800
F2038       F  0.60843074  0.05523999  0.82441909    -0.18900
F2039       F  0.61400779  0.09655277  0.82335548    -0.22800
F2040       F  0.64199693  0.07092764  0.80536466    -0.24400
C2041       C  0.34899599  0.26744897  0.11731664    -0.11200
C2042       C  0.37406143  0.27210340  0.12249688     0.11400
C2043       C  0.38173008  0.27673611  0.14737307    -0.03000
C2044       C  0.36394559  0.27518673  0.16664589    -0.05700
C2045       C  0.33884356  0.27005354  0.16152770    -0.16500
C2046       C  0.33113616  0.26616145  0.13640727     0.02400
C2047       C  0.39186428  0.27175270  0.10133752     0.12400
C2048       C  0.40853201  0.28340687  0.15337296     0.63000
H2049       H  0.36946559  0.27806214  0.18588244     0.12400
C2050       C  0.30438475  0.25974841  0.12967393     0.55100
H2051       H  0.34362579  0.26449448  0.09804460     0.08200
C2052       C  0.40163441  0.24914147  0.09171277    -0.05600
C2053       C  0.41903689  0.25026243  0.07216351    -0.06300
C2054       C  0.42676020  0.27311731  0.06214248    -0.15900
C2055       C  0.41629096  0.29565288  0.07111917    -0.01500
C2056       C  0.39872659  0.29453388  0.09054895    -0.09100
C2057       C  0.39391171  0.22400697  0.10221750     0.65200
H2058       H  0.42726146  0.23331749  0.06483240     0.10700
C2059       C  0.42394236  0.32068817  0.06043973     0.63600
H2060       H  0.39045062  0.31148333  0.09781017     0.08000
F2061       F  0.29625935  0.23977692  0.14381105    -0.19400
F2062       F  0.30195496  0.25322419  0.10476745    -0.15700
F2063       F  0.28924268  0.28014328  0.13403892    -0.19200
F2064       F  0.41466721  0.30563662  0.14189004    -0.22500
F2065       F  0.42433950  0.26488418  0.14489966    -0.28800
F2066       F  0.41230442  0.28625703  0.17877897    -0.18000
F2067       F  0.41212008  0.34030266  0.07241293    -0.20500
F2068       F  0.41783997  0.32169407  0.03539474    -0.21700
F2069       F  0.44932798  0.32390982  0.06309953    -0.18800
F2070       F  0.40655905  0.20452569  0.09089930    -0.18900
F2071       F  0.36874618  0.22033477  0.09838413    -0.22800
F2072       F  0.39883237  0.22313500  0.12752972    -0.24400
C2073       C  0.09621082  0.42126060  0.28584715    -0.11200
C2074       C  0.10113387  0.40572706  0.26535565     0.11400
C2075       C  0.08572220  0.40719991  0.24388274    -0.03000
C2076       C  0.06647290  0.42512591  0.24333766    -0.05700
C2077       C  0.06207937  0.44120962  0.26358572    -0.16500
C2078       C  0.07693831  0.43908455  0.28534659     0.02400
C2079       C  0.12179487  0.38722674  0.26752939     0.12400
C2080       C  0.08962171  0.38993860  0.22168666     0.63000
H2081       H  0.05472766  0.42688940  0.22700378     0.12400
C2082       C  0.07223128  0.45537041  0.30805347     0.55100
H2083       H  0.10773374  0.41928266  0.30231341     0.08200
C2084       C  0.14692130  0.39348435  0.26280377    -0.05600
C2085       C  0.16504548  0.37442721  0.26337383    -0.06300
C2086       C  0.15910744  0.34961532  0.26976120    -0.15900
C2087       C  0.13417228  0.34416083  0.27709567    -0.01500
C2088       C  0.11597816  0.36307070  0.27544790    -0.09100
C2089       C  0.15451848  0.42023346  0.25750819     0.65200
H2090       H  0.18412556  0.37882539  0.25864391     0.10700
C2091       C  0.12635205  0.31857198  0.28623011     0.63600
H2092       H  0.09676600  0.35912404  0.28007410     0.08000
F2093       F  0.07594717  0.48014404  0.30208431    -0.19400
F2094       F  0.08800983  0.44944938  0.32760115    -0.15700
F2095       F  0.04802747  0.45218187  0.31616111    -0.19200
F2096       F  0.08711016  0.36538099  0.22907346    -0.22500
F2097       F  0.11316955  0.39338926  0.21192058    -0.24000
F2098       F  0.07247135  0.39433698  0.20289929    -0.18000
F2099       F  0.10135211  0.31770365  0.29241955    -0.20500
F2100       F  0.13976300  0.31253912  0.30743332    -0.21700
F2101       F  0.13050860  0.30099909  0.26775568    -0.18800
F2102       F  0.17982064  0.42233244  0.25314838    -0.18900
F2103       F  0.14873506  0.43507769  0.27783210    -0.22800
F2104       F  0.14204319  0.42906583  0.23676188    -0.24400
C2105       C  0.28101161  0.12056562  0.35633733    -0.11200
C2106       C  0.26885815  0.12194856  0.37928232     0.11400
C2107       C  0.25681671  0.14430867  0.38635098    -0.03000
C2108       C  0.25589941  0.16419194  0.36915504    -0.05700
C2109       C  0.26699694  0.16259995  0.34531579    -0.16500
C2110       C  0.28041442  0.14032324  0.33905735     0.02400
C2111       C  0.26920674  0.09947127  0.39547827     0.12400
C2112       C  0.24522259  0.14711304  0.41206511     0.63000
H2113       H  0.24618892  0.18114029  0.37425267     0.12400
C2114       C  0.29374519  0.13651670  0.31427937     0.55100
H2115       H  0.29059934  0.10333974  0.35192233     0.08200
C2116       C  0.25157653  0.08000524  0.39274462    -0.05600
C2117       C  0.25193237  0.06020516  0.40994055    -0.06300
C2118       C  0.27005436  0.05874988  0.42874456    -0.15900
C2119       C  0.28947014  0.07667915  0.42942880    -0.01500
C2120       C  0.28827227  0.09716834  0.41316844    -0.09100
C2121       C  0.23244377  0.08023507  0.37187923     0.65200
H2122       H  0.23751882  0.04610474  0.40940894     0.10700
C2123       C  0.31162950  0.07522730  0.44694822     0.63600
H2124       H  0.30241932  0.11154438  0.41424351     0.08000
F2125       F  0.27685088  0.13748150  0.29481701    -0.19400
F2126       F  0.30550110  0.11358057  0.31304915    -0.15700
F2127       F  0.31182331  0.15460744  0.31124263    -0.19200
F2128       F  0.26355641  0.14525426  0.43008305    -0.22500
F2129       F  0.22777258  0.12860060  0.41597529    -0.24000
F2130       F  0.23349138  0.16993507  0.41493461    -0.18000
F2131       F  0.33333681  0.07716356  0.43320537    -0.20500
F2132       F  0.31272655  0.05309321  0.46009506    -0.21700
F2133       F  0.31059671  0.09481221  0.46375021    -0.18800
F2134       F  0.21704929  0.05955358  0.37275025    -0.18900
F2135       F  0.24441569  0.08013612  0.34904238    -0.22800
F2136       F  0.21774874  0.10132215  0.37362589    -0.24400
C2137       C  0.21582443  0.37919625  0.13740105    -0.11200
C2138       C  0.23388355  0.37810176  0.11846113     0.11400
C2139       C  0.24960220  0.35694316  0.11691642    -0.03000
C2140       C  0.24820732  0.33877420  0.13570110    -0.05700
C2141       C  0.23107269  0.34028906  0.15558536    -0.16500
C2142       C  0.21340235  0.36010667  0.15543937     0.02400
C2143       C  0.23677587  0.39943694  0.10077839     0.12400
C2144       C  0.26792290  0.35340472  0.09550866     0.63000
H2145       H  0.26134664  0.32349918  0.13523215     0.12400
C2146       C  0.19179565  0.36116732  0.17366866     0.55100
H2147       H  0.20388636  0.39543564  0.13832611     0.08200
C2148       C  0.21952367  0.40448037  0.08139361    -0.05600
C2149       C  0.22526521  0.42319906  0.06385413    -0.06300
C2150       C  0.24801401  0.43610369  0.06443199    -0.15900
C2151       C  0.26554560  0.43044780  0.08339760    -0.01500
C2152       C  0.25886473  0.41332256  0.10208161    -0.09100
C2153       C  0.19534535  0.39004927  0.07898651     0.65200
H2154       H  0.21212398  0.42774749  0.04921698     0.10700
C2155       C  0.29169578  0.44120037  0.08358193     0.63600
H2156       H  0.27161468  0.40965801  0.11731797     0.08000
F2157       F  0.18055471  0.33800497  0.17526978    -0.19400
F2158       F  0.17380483  0.37800891  0.16600704    -0.15700
F2159       F  0.20016361  0.36841613  0.19698200    -0.19200
F2160       F  0.28728143  0.37021896  0.09750484    -0.22500
F2161       F  0.25591443  0.35686072  0.07293794    -0.24000
F2162       F  0.27811145  0.32968107  0.09539066    -0.18000
F2163       F  0.29162533  0.46436480  0.09489337    -0.20500
F2164       F  0.30085325  0.44337746  0.05955900    -0.21700
F2165       F  0.30785961  0.42586193  0.09662372    -0.18800
F2166       F  0.18299293  0.39566144  0.05701370    -0.18900
F2167       F  0.17977689  0.39594759  0.09865212    -0.22800
F2168       F  0.20006412  0.36469077  0.07910867    -0.24400
C2169       C  0.37718958  0.14362134  0.21485442    -0.11200
C2170       C  0.37616041  0.12181994  0.22920679     0.11400
C2171       C  0.35615788  0.11852012  0.24604775    -0.03000
C2172       C  0.33756882  0.13702381  0.24763052    -0.05700
C2173       C  0.33846539  0.15926373  0.23359694    -0.16500
C2174       C  0.35887284  0.16255156  0.21668050     0.02400
C2175       C  0.39680253  0.10310806  0.22723132     0.12400
C2176       C  0.35475930  0.09571444  0.26282000     0.63000
H2177       H  0.32246839  0.13443384  0.26070911     0.12400
C2178       C  0.36204891  0.18587164  0.20081333     0.55100
H2179       H  0.39298582  0.14590702  0.20253579     0.08200
C2180       C  0.39826227  0.08538358  0.20756582    -0.05600
C2181       C  0.41692890  0.06679284  0.20846862    -0.06300
C2182       C  0.43352380  0.06504985  0.22868547    -0.15900
C2183       C  0.43183914  0.08265905  0.24839387    -0.01500
C2184       C  0.41419802  0.10202328  0.24672245    -0.09100
C2185       C  0.37985366  0.08584100  0.18606811     0.65200
H2186       H  0.41839576  0.05307791  0.19367571     0.10700
C2187       C  0.44736175  0.07994925  0.27195044     0.63600
H2188       H  0.41296198  0.11588912  0.26139428     0.08000
F2189       F  0.34119315  0.18948285  0.18610941    -0.19400
F2190       F  0.38235690  0.18416520  0.18498808    -0.15700
F2191       F  0.36575549  0.20639424  0.21606006    -0.19200
F2192       F  0.37373727  0.09645010  0.28022692    -0.22500
F2193       F  0.35689265  0.07418263  0.24874525    -0.24000
F2194       F  0.33248314  0.09457889  0.27563333    -0.18000
F2195       F  0.47237245  0.08217374  0.26652162    -0.20500
F2196       F  0.44300884  0.05681860  0.28247217    -0.21700
F2197       F  0.44147836  0.09794370  0.28954632    -0.18800
F2198       F  0.38367946  0.06625278  0.16962780    -0.18900
F2199       F  0.38230588  0.10785883  0.17292515    -0.22800
F2200       F  0.35583168  0.08407873  0.19514044    -0.24400
C2201       C  0.86280746  0.20330117  0.37378514    -0.11200
C2202       C  0.88401967  0.21832228  0.37496864     0.11400
C2203       C  0.88911064  0.23482971  0.35504830    -0.03000
C2204       C  0.87070884  0.23860973  0.33655292    -0.05700
C2205       C  0.84821612  0.22497506  0.33626357    -0.16500
C2206       C  0.84521321  0.20555883  0.35435378     0.02400
C2207       C  0.90023289  0.21654981  0.39758910     0.12400
C2208       C  0.91439079  0.24727185  0.35271107     0.63000
H2209       H  0.87389314  0.25236194  0.32214469     0.12400
C2210       C  0.82392485  0.18689983  0.35355671     0.55100
H2211       H  0.85990192  0.18997434  0.38867430     0.08200
C2212       C  0.89759171  0.23320550  0.41802873    -0.05600
C2213       C  0.91458139  0.23165728  0.43806323    -0.06300
C2214       C  0.93233959  0.21245511  0.43947188    -0.15900
C2215       C  0.93232779  0.19362939  0.42074231    -0.01500
C2216       C  0.91713571  0.19670830  0.39951423    -0.09100
C2217       C  0.87629821  0.25181653  0.41905973     0.65200
H2218       H  0.91413120  0.24545629  0.45284673     0.10700
C2219       C  0.94723452  0.16964210  0.42256390     0.63600
H2220       H  0.91791959  0.18303098  0.38459753     0.08000
F2221       F  0.82789317  0.16710639  0.36966217    -0.19400
F2222       F  0.82168389  0.17707801  0.32975195    -0.15700
F2223       F  0.80195620  0.19837236  0.36053516    -0.19200
F2224       F  0.93234440  0.22908045  0.34930765    -0.22500
F2225       F  0.92004424  0.26072749  0.37398504    -0.24000
F2226       F  0.91532826  0.26338213  0.33256856    -0.18000
F2227       F  0.93137017  0.14957183  0.41932202    -0.20500
F2228       F  0.95887695  0.16667127  0.44537859    -0.21700
F2229       F  0.96504568  0.16914748  0.40396138    -0.18800
F2230       F  0.87633828  0.26529465  0.44113068    -0.18900
F2231       F  0.85391345  0.23919060  0.41750631    -0.22800
F2232       F  0.87789261  0.26844494  0.39946947    -0.24400
C2233       C  0.09298290  0.20061031  0.59835545    -0.11200
C2234       C  0.10502284  0.22371255  0.60067353     0.11400
C2235       C  0.09821416  0.24364823  0.58472361    -0.03000
C2236       C  0.07841175  0.24012873  0.56789547    -0.05700
C2237       C  0.06593574  0.21723664  0.56607894    -0.16500
C2238       C  0.07347687  0.19697473  0.58118868     0.02400
C2239       C  0.12490824  0.22627862  0.61983221     0.12400
C2240       C  0.11208986  0.26830862  0.58511490     0.63000
H2241       H  0.07262672  0.25514091  0.55569583     0.12400
C2242       C  0.06119627  0.17161788  0.57884054     0.55100
H2243       H  0.09903163  0.18543184  0.61021564     0.08200
C2244       C  0.11937750  0.23068779  0.64533204    -0.05600
C2245       C  0.13916435  0.23317718  0.66242452    -0.06300
C2246       C  0.16401600  0.23077581  0.65483502    -0.15900
C2247       C  0.16952726  0.22610903  0.62932104    -0.01500
C2248       C  0.14973581  0.22371855  0.61226689    -0.09100
C2249       C  0.09268050  0.23279008  0.65436498     0.65200
H2250       H  0.13540595  0.23689342  0.68194358     0.10700
C2251       C  0.19618753  0.22451183  0.61996026     0.63600
H2252       H  0.15345573  0.21992610  0.59275464     0.08000
F2253       F  0.03602782  0.17364469  0.58375794    -0.19400
F2254       F  0.07122706  0.15451086  0.59536424    -0.15700
F2255       F  0.06446392  0.16252793  0.55489171    -0.19200
F2256       F  0.13651387  0.26452515  0.57795850    -0.22500
F2257       F  0.11165654  0.27843089  0.60885650    -0.24000
F2258       F  0.10165462  0.28547567  0.56890276    -0.18000
F2259       F  0.20771768  0.20372998  0.62990367    -0.20500
F2260       F  0.20915386  0.24568336  0.62697386    -0.21700
F2261       F  0.19729254  0.22264695  0.59419731    -0.18800
F2262       F  0.09143040  0.23756401  0.67973798    -0.18900
F2263       F  0.08019402  0.21072139  0.64979375    -0.22800
F2264       F  0.08074184  0.25198476  0.64200148    -0.24400
C2265       C  0.90658707  0.24538412  0.59596829    -0.11200
C2266       C  0.90304296  0.22480649  0.61165894     0.11400
C2267       C  0.91591890  0.20225416  0.60673244    -0.03000
C2268       C  0.93247498  0.20129808  0.58633903    -0.05700
C2269       C  0.93608403  0.22194262  0.57065105    -0.16500
C2270       C  0.92306232  0.24443076  0.57555199     0.02400
C2271       C  0.88394853  0.22676755  0.63166813     0.12400
C2272       C  0.91190394  0.17928048  0.62279650     0.63000
H2273       H  0.94269447  0.18434204  0.58232527     0.12400
C2274       C  0.92676591  0.26738601  0.55946900     0.55100
H2275       H  0.89607162  0.26220440  0.59977728     0.08200
C2276       C  0.88870230  0.23806822  0.65512790    -0.05600
C2277       C  0.86956469  0.23848534  0.67312002    -0.06300
C2278       C  0.84573940  0.22905405  0.66788422    -0.15900
C2279       C  0.84055308  0.21954173  0.64363797    -0.01500
C2280       C  0.86000273  0.21810782  0.62616587    -0.09100
C2281       C  0.91348006  0.25042857  0.66076641     0.65200
H2282       H  0.87289761  0.24668030  0.69131146     0.10700
C2283       C  0.81437849  0.21231603  0.63555491     0.63600
H2284       H  0.85661637  0.21046152  0.60774161     0.08000
F2285       F  0.91270324  0.28737515  0.56783446    -0.19400
F2286       F  0.91977727  0.26231621  0.53516606    -0.15700
F2287       F  0.95151947  0.27436344  0.55989168    -0.19200
F2288       F  0.88752825  0.17133106  0.62069276    -0.22500
F2289       F  0.91686184  0.18482445  0.64751719    -0.24000
F2290       F  0.92723956  0.15976263  0.61569058    -0.18000
F2291       F  0.81298614  0.20797102  0.61010025    -0.20500
F2292       F  0.79794066  0.23141072  0.64114281    -0.21700
F2293       F  0.80704780  0.19079220  0.64764526    -0.18800
F2294       F  0.91452707  0.25937217  0.68501996    -0.18900
F2295       F  0.91694542  0.27035914  0.64481194    -0.22800
F2296       F  0.93269029  0.23358196  0.65755956    -0.24400
C2297       C  0.09091371  0.20004673  0.40598207    -0.11200
C2298       C  0.09860181  0.22411924  0.39937711     0.11400
C2299       C  0.08753488  0.24502598  0.41120218    -0.03000
C2300       C  0.06981394  0.24095253  0.43015388    -0.05700
C2301       C  0.06224495  0.21681950  0.43695131    -0.16500
C2302       C  0.07284755  0.19592621  0.42453381     0.02400
C2303       C  0.11789320  0.22680525  0.37957655     0.12400
C2304       C  0.09404626  0.27147946  0.40346862     0.63000
H2305       H  0.06132563  0.25665640  0.43964103     0.12400
C2306       C  0.06594301  0.16898678  0.42972496     0.55100
H2307       H  0.09915408  0.18420536  0.39644398     0.08200
C2308       C  0.14364383  0.22525354  0.38489078    -0.05600
C2309       C  0.16081795  0.22888189  0.36532870    -0.06300
C2310       C  0.15308673  0.23399393  0.34072571    -0.15900
C2311       C  0.12715686  0.23438211  0.33533315    -0.01500
C2312       C  0.11005519  0.23067324  0.35493819    -0.09100
C2313       C  0.15286453  0.21974822  0.41113608     0.65200
H2314       H  0.18056715  0.22829678  0.36929092     0.10700
C2315       C  0.11733187  0.23859499  0.30911475     0.63600
H2316       H  0.09023673  0.23128514  0.35129835     0.08000
F2317       F  0.08708260  0.15599465  0.43668648    -0.19400
F2318       F  0.05647979  0.15841040  0.40815241    -0.15700
F2319       F  0.04842293  0.16627113  0.44836970    -0.19200
F2320       F  0.08746010  0.27515093  0.37880215    -0.22500
F2321       F  0.11930062  0.27553879  0.40609788    -0.24000
F2322       F  0.08164484  0.28905652  0.41778682    -0.18000
F2323       F  0.09214496  0.23348009  0.30735964    -0.20500
F2324       F  0.12964021  0.22326695  0.29237234    -0.21700
F2325       F  0.12081223  0.26319817  0.30250200    -0.18800
F2326       F  0.17857774  0.22030652  0.41260349    -0.18900
F2327       F  0.14498138  0.19630454  0.41832741    -0.22800
F2328       F  0.14360836  0.23720133  0.42773890    -0.24400
loop_ 
_geom_bond_atom_site_label_1 
_geom_bond_atom_site_label_2 
_geom_bond_distance 
_geom_bond_site_symmetry_2 
_ccdc_geom_bond_type 
N1            C6   1.355       .  A
N1            C5   1.355   1_655  A
N1           H33   1.038       .  S
N2            C9   1.352       .  A
N2           C10   1.352       .  A
N3            C8   1.355       .  A
N3            C7   1.357   1_655  A
N3           H34   1.038       .  S
N4           C11   1.355       .  A
N4           C12   1.355       .  A
C5           C13   1.387       .  A
C5           C21   1.418       .  A
C6           C22   1.419       .  A
C6           C14   1.388       .  A
C7           C15   1.387       .  A
C7           C24   1.420       .  A
C8           C23   1.421       .  A
C8           C16   1.387       .  A
C9           C21   1.414       .  A
C9           C17   1.387       .  A
C10          C24   1.415       .  A
C10          C18   1.386       .  A
C11          C19   1.386       .  A
C11          C22   1.419       .  A
C12          C20   1.386       .  A
C12          C23   1.421       .  A
C13          C14   1.376   1_455  A
C13          H25   1.082       .  S
C14          H26   1.082       .  S
C15          C16   1.375   1_455  A
C15          H27   1.082       .  S
C16          H28   1.082       .  S
C17          C18   1.373       .  A
C17          H29   1.082       .  S
C18          H30   1.082       .  S
C19          C20   1.377       .  A
C19          H31   1.082       .  S
C20          H32   1.082       .  S
C21        C2237   1.491       .  S
C22        C2269   1.497       .  S
C23        C2214   1.502       .  S
C24        C2301   1.496       .  S
O35         Mg37   2.173       .  S
O35         Mg43   2.158       .  S
O35          C70   1.237       .  S
C36          H75   1.081       .  S
C36          O49   1.236       .  S
C36          O73   1.272       .  A
Mg37         O66   2.160       .  S
Mg37         O81   2.297       .  S
Mg37         O77   2.300       .  S
Mg37         O48   2.291       .  S
O38         Mg80   2.159       .  S
O38         Mg63   2.151       .  S
O38          C59   1.235       .  S
O39          C70   1.272       .  A
O39         Mg63   2.312       .  S
C40        C2045   1.481       .  S
C40          O42   1.273       .  A
C40          O54   1.273       .  A
O41          C69   1.271       .  A
O41         Mg43   2.306       .  S
O42         Mg74   2.275       .  S
Mg43         O49   2.180       .  S
Mg43         O57   2.305       .  S
Mg43         O45   2.327       .  S
C44        C2141   1.504       .  S
C44          O82   1.271       .  A
C44          O50   1.277       .  A
O45          C52   1.279       .  A
H46          C59   1.081       .  S
C47          H72   1.081       .  S
C47          O61   1.235       .  S
C47          O62   1.270       .  A
O48          C71   1.268       .  A
O49         Mg63   2.161       .  S
O50         Mg80   2.338       .  S
C51        C2086   1.504       .  S
C51          O64   1.274       .  A
C51          O56   1.279       .  A
C52        C2310   1.496       .  S
C52          O79   1.273       .  A
Mg53         O60   2.143       .  S
Mg53         O61   2.163       .  S
Mg53         O54   2.292       .  S
Mg53         O55   2.292       .  S
Mg53         O82   2.248       .  S
O55          C59   1.269       .  A
O56         Mg63   2.343       .  S
O57          C76   1.277       .  A
O58          C78   1.273       .  A
O58         Mg74   2.316       .  S
O60         Mg74   2.161       .  S
O60          C71   1.234       .  S
O61         Mg80   2.151       .  S
O62         Mg74   2.299       .  S
Mg63         O79   2.278       .  S
O64         Mg80   2.271       .  S
H65          C70   1.081       .  S
O66         Mg74   2.151       .  S
O66          C69   1.236       .  S
H67          C69   1.081       .  S
H68          C71   1.081       .  S
O73         Mg80   2.313       .  S
C76        C2109   1.507       .  S
C76          O81   1.272       .  A
O77          C78   1.277       .  A
C78        C2173   1.514       .  S
O83         Mg85   2.163       .  S
O83         Mg91   2.159       .  S
O83         C118   1.236       .  S
C84         H123   1.081       .  S
C84          O97   1.235       .  S
C84         O121   1.269       .  A
Mg85        O114   2.156       .  S
Mg85        O129   2.313       .  S
Mg85        O125   2.280       .  S
Mg85         O96   2.304       .  S
O86        Mg128   2.156       .  S
O86        Mg111   2.136       .  S
O86         C107   1.236       .  S
O87         C118   1.271       .  A
O87        Mg111   2.305       .  S
C88        C1981   1.476       .  S
C88          O90   1.274       .  A
C88         O102   1.273       .  A
O89         C117   1.270       .  A
O89         Mg91   2.303       .  S
O90        Mg122   2.271       .  S
Mg91         O97   2.149       .  S
Mg91        O105   2.253       .  S
Mg91         O93   2.309       .  S
C92        C1885   1.481       .  S
C92         O130   1.274       .  A
C92          O98   1.274       .  A
O93         C100   1.274       .  A
H94         C107   1.081       .  S
C95         H120   1.081       .  S
C95         O109   1.236       .  S
C95         O110   1.271       .  A
O96         C119   1.270       .  A
O97        Mg111   2.156       .  S
O98        Mg128   2.315       .  S
C99        C2013   1.492       .  S
C99         O112   1.271       .  A
C99         O104   1.276       .  A
C100       C1958   1.480       .  S
C100        O127   1.270       .  A
Mg101       O108   2.172       .  S
Mg101       O109   2.150       .  S
Mg101       O102   2.294       .  S
Mg101       O103   2.294       .  S
Mg101       O130   2.290       .  S
O103        C107   1.269       .  A
O104       Mg111   2.306       .  S
O105        C124   1.269       .  A
O106        C126   1.279       .  A
O106       Mg122   2.341       .  S
O108       Mg122   2.161       .  S
O108        C119   1.235       .  S
O109       Mg128   2.148       .  S
O110       Mg122   2.303       .  S
Mg111       O127   2.256       .  S
O112       Mg128   2.265       .  S
H113        C118   1.081       .  S
O114       Mg122   2.154       .  S
O114        C117   1.236       .  S
H115        C117   1.081       .  S
H116        C119   1.081       .  S
O121       Mg128   2.297       .  S
C124       C2278   1.483       .  S
C124        O129   1.275       .  A
O125        C126   1.273       .  A
C126       C1917   1.487       .  S
N131        C136   1.354       .  A
N131        C135   1.354       .  A
N131        H163   1.039       .  S
N132        C139   1.351   1_565  A
N132        C140   1.351       .  A
N133        C138   1.351       .  A
N133        C137   1.354       .  A
N133        H164   1.039       .  S
N134        C141   1.354   1_565  A
N134        C142   1.353       .  A
C135        C143   1.387       .  A
C135        C151   1.417       .  A
C136        C152   1.417       .  A
C136        C144   1.387       .  A
C137        C145   1.387       .  A
C137        C154   1.416       .  A
C138        C153   1.413       .  A
C138        C146   1.387       .  A
C139        C151   1.416       .  A
C139        C147   1.387       .  A
C140        C154   1.414       .  A
C140        C148   1.386       .  A
C141        C149   1.386       .  A
C141        C152   1.418       .  A
C142        C150   1.386       .  A
C142        C153   1.417       .  A
C143        C144   1.380       .  A
C143        H155   1.082       .  S
C144        H156   1.082       .  S
C145        C146   1.378       .  A
C145        H157   1.082       .  S
C146        H158   1.083       .  S
C147        C148   1.378   1_545  A
C147        H159   1.082       .  S
C148        H160   1.082       .  S
C149        C150   1.377   1_545  A
C149        H161   1.082       .  S
C150        H162   1.082       .  S
C151       C1821   1.493       .  S
C152       C2182   1.500       .  S
C153       C1789   1.494       .  S
C154       C1862   1.494       .  S
O165       Mg167   2.149       .  S
O165       Mg173   2.159       .  S
O165        C200   1.236       .  S
C166        H205   1.081       .  S
C166        O179   1.234       .  S
C166        O203   1.268       .  A
Mg167       O196   2.152       .  S
Mg167       O211   2.311       .  S
Mg167       O207   2.263       .  S
Mg167       O178   2.308       .  S
O168       Mg210   2.165       .  S
O168       Mg193   2.159       .  S
O168        C189   1.236       .  S
O169        C200   1.270       .  A
O169       Mg193   2.303       .  S
C170       C1734   1.480       .  S
C170        O172   1.271       .  A
C170        O184   1.275       .  A
O171        C199   1.271       .  A
O171       Mg173   2.303       .  S
O172       Mg204   2.263       .  S
Mg173       O179   2.134       .  S
Mg173       O187   2.260       .  S
Mg173       O175   2.316       .  S
C174       C1670   1.481       .  S
C174        O212   1.273       .  A
C174        O180   1.276       .  A
O175        C182   1.276       .  A
H176        C189   1.081       .  S
C177        H202   1.081       .  S
C177        O191   1.234       .  S
C177        O192   1.269       .  A
O178        C201   1.272       .  A
O179       Mg193   2.154       .  S
O180       Mg210   2.316       .  S
C181       C1757   1.495       .  S
C181        O194   1.270       .  A
C181        O186   1.277       .  A
C182       C1693   1.480       .  S
C182        O209   1.273       .  A
Mg183       O190   2.161       .  S
Mg183       O191   2.150       .  S
Mg183       O184   2.304       .  S
Mg183       O185   2.303       .  S
Mg183       O212   2.280       .  S
O185        C189   1.271       .  A
O186       Mg193   2.314       .  S
O187        C206   1.270       .  A
O188        C208   1.274       .  A
O188       Mg204   2.311       .  S
O190       Mg204   2.162       .  S
O190        C201   1.236       .  S
O191       Mg210   2.144       .  S
O192       Mg204   2.297       .  S
Mg193       O209   2.278       .  S
O194       Mg210   2.254       .  S
H195        C200   1.081       .  S
O196       Mg204   2.156       .  S
O196        C199   1.236       .  S
H197        C199   1.081       .  S
H198        C201   1.081       .  S
O203       Mg210   2.287       .  S
C206       C1853   1.495       .  S
C206        O211   1.277       .  A
O207        C208   1.270       .  A
C208       C1629   1.479       .  S
N213        C218   1.350       .  A
N213        C217   1.352       .  A
N213        H245   1.039       .  S
N214        C221   1.352       .  A
N214        C222   1.350   1_655  A
N215        C220   1.355       .  A
N215        C219   1.354       .  A
N215        H246   1.037       .  S
N216        C223   1.353       .  A
N216        C224   1.354   1_655  A
C217        C225   1.387       .  A
C217        C233   1.411       .  A
C218        C234   1.411       .  A
C218        C226   1.388       .  A
C219        C227   1.387       .  A
C219        C236   1.419       .  A
C220        C235   1.419       .  A
C220        C228   1.387       .  A
C221        C233   1.412       .  A
C221        C229   1.385       .  A
C222        C236   1.414       .  A
C222        C230   1.387       .  A
C223        C231   1.386       .  A
C223        C234   1.417       .  A
C224        C232   1.386       .  A
C224        C235   1.418       .  A
C225        C226   1.373       .  A
C225        H237   1.082       .  S
C226        H238   1.083       .  S
C227        C228   1.376       .  A
C227        H239   1.082       .  S
C228        H240   1.082       .  S
C229        C230   1.376   1_655  A
C229        H241   1.082       .  S
C230        H242   1.082       .  S
C231        C232   1.377   1_655  A
C231        H243   1.082       .  S
C232        H244   1.082       .  S
C233       C1766   1.488       .  S
C234       C1574   1.488       .  S
C235       C1597   1.497       .  S
C236       C1533   1.491       .  S
O247       Mg249   2.177       .  S
O247       Mg255   2.167       .  S
O247        C282   1.238       .  S
C248        H287   1.081       .  S
C248        O261   1.235       .  S
C248        O285   1.270       .  A
Mg249       O278   2.151       .  S
Mg249       O293   2.320       .  S
Mg249       O289   2.313       .  S
Mg249       O260   2.301       .  S
O250       Mg292   2.157       .  S
O250       Mg275   2.146       .  S
O250        C271   1.236       .  S
O251        C282   1.273       .  A
O251       Mg275   2.313       .  S
C252       C1373   1.482       .  S
C252        O254   1.271       .  A
C252        O266   1.274       .  A
O253        C281   1.269       .  A
O253       Mg255   2.296       .  S
O254       Mg286   2.264       .  S
Mg255       O261   2.159       .  S
Mg255       O269   2.264       .  S
Mg255       O257   2.320       .  S
C256       C1510   1.501       .  S
C256        O294   1.269       .  A
C256        O262   1.278       .  A
O257        C264   1.277       .  A
H258        C271   1.081       .  S
C259        H284   1.081       .  S
C259        O273   1.236       .  S
C259        O274   1.270       .  A
O260        C283   1.270       .  A
O261       Mg275   2.150       .  S
O262       Mg292   2.320       .  S
C263       C1437   1.508       .  S
C263        O276   1.274       .  A
C263        O268   1.278       .  A
C264       C1606   1.497       .  S
C264        O291   1.272       .  A
Mg265       O272   2.151       .  S
Mg265       O273   2.158       .  S
Mg265       O266   2.298       .  S
Mg265       O267   2.297       .  S
Mg265       O294   2.260       .  S
O267        C271   1.270       .  A
O268       Mg275   2.337       .  S
O269        C288   1.270       .  A
O270        C290   1.273       .  A
O270       Mg286   2.308       .  S
O272       Mg286   2.158       .  S
O272        C283   1.235       .  S
O273       Mg292   2.146       .  S
O274       Mg286   2.295       .  S
Mg275       O291   2.280       .  S
O276       Mg292   2.266       .  S
H277        C282   1.081       .  S
O278       Mg286   2.139       .  S
O278        C281   1.235       .  S
H279        C281   1.081       .  S
H280        C283   1.081       .  S
O285       Mg292   2.304       .  S
C288       C1414   1.493       .  S
C288        O293   1.279       .  A
O289        C290   1.279       .  A
C290       C1469   1.511       .  S
N295        C300   1.353       .  A
N295        C299   1.352       .  A
N295        H327   1.039       .  S
N296        C303   1.353       .  A
N296        C304   1.352   1_565  A
N297        C302   1.355       .  A
N297        C301   1.356       .  A
N297        H328   1.038       .  S
N298        C305   1.353       .  A
N298        C306   1.352   1_565  A
C299        C307   1.387       .  A
C299        C315   1.414       .  A
C300        C316   1.414       .  A
C300        C308   1.387       .  A
C301        C309   1.387       .  A
C301        C318   1.421       .  A
C302        C317   1.419       .  A
C302        C310   1.387       .  A
C303        C315   1.414       .  A
C303        C311   1.385       .  A
C304        C318   1.415       .  A
C304        C312   1.387       .  A
C305        C313   1.386       .  A
C305        C316   1.415       .  A
C306        C314   1.387       .  A
C306        C317   1.416       .  A
C307        C308   1.376       .  A
C307        H319   1.082       .  S
C308        H320   1.082       .  S
C309        C310   1.379       .  A
C309        H321   1.082       .  S
C310        H322   1.082       .  S
C311        C312   1.376   1_565  A
C311        H323   1.082       .  S
C312        H324   1.082       .  S
C313        C314   1.374   1_565  A
C313        H325   1.082       .  S
C314        H326   1.082       .  S
C315       C1501   1.492       .  S
C316       C1350   1.491       .  S
C317       C2022   1.493       .  S
C318       C1318   1.498       .  S
N329        C334   1.355       .  A
N329        C333   1.354   1_556  A
N329        H361   1.037       .  S
N330        C337   1.353       .  A
N330        C338   1.354       .  A
N331        C336   1.355       .  A
N331        C335   1.356   1_556  A
N331        H362   1.037       .  S
N332        C339   1.354       .  A
N332        C340   1.354       .  A
C333        C341   1.387       .  A
C333        C349   1.417       .  A
C334        C350   1.419       .  A
C334        C342   1.388       .  A
C335        C343   1.387       .  A
C335        C352   1.420       .  A
C336        C351   1.420       .  A
C336        C344   1.388       .  A
C337        C349   1.416       .  A
C337        C345   1.387       .  A
C338        C352   1.415       .  A
C338        C346   1.386       .  A
C339        C347   1.386       .  A
C339        C350   1.419       .  A
C340        C348   1.386       .  A
C340        C351   1.419       .  A
C341        C342   1.378   1_554  A
C341        H353   1.082       .  S
C342        H354   1.082       .  S
C343        C344   1.377   1_554  A
C343        H355   1.082       .  S
C344        H356   1.082       .  S
C345        C346   1.372       .  A
C345        H357   1.082       .  S
C346        H358   1.082       .  S
C347        C348   1.375       .  A
C347        H359   1.082       .  S
C348        H360   1.082       .  S
C349       C1277   1.491       .  S
C350       C1478   1.498       .  S
C351       C1245   1.497       .  S
C352       C2150   1.499       .  S
N363        C368   1.353   1_554  A
N363        C367   1.355       .  A
N363        H395   1.037       .  S
N364        C371   1.352       .  A
N364        C372   1.351       .  A
N365        C370   1.354   1_554  A
N365        C369   1.353       .  A
N365        H396   1.035       .  S
N366        C373   1.352       .  A
N366        C374   1.352       .  A
C367        C375   1.387       .  A
C367        C383   1.417       .  A
C368        C384   1.417       .  A
C368        C376   1.387       .  A
C369        C377   1.387       .  A
C369        C386   1.417       .  A
C370        C385   1.418       .  A
C370        C378   1.388       .  A
C371        C383   1.413       .  A
C371        C379   1.385       .  A
C372        C386   1.416       .  A
C372        C380   1.388       .  A
C373        C381   1.386       .  A
C373        C384   1.414       .  A
C374        C382   1.387       .  A
C374        C385   1.416       .  A
C375        C376   1.376   1_554  A
C375        H387   1.082       .  S
C376        H388   1.082       .  S
C377        C378   1.376   1_554  A
C377        H389   1.082       .  S
C378        H390   1.082       .  S
C379        C380   1.372       .  A
C379        H391   1.082       .  S
C380        H392   1.082       .  S
C381        C382   1.373       .  A
C381        H393   1.082       .  S
C382        H394   1.082       .  S
C383       C1190   1.492       .  S
C384       C1990   1.489       .  S
C385       C1213   1.490       .  S
C386       C1725   1.488       .  S
O397       Mg399   2.155       .  S
O397       Mg405   2.165       .  S
O397        C432   1.235       .  S
C398        H437   1.081       .  S
C398        O411   1.235       .  S
C398        O435   1.269       .  A
Mg399       O428   2.147       .  S
Mg399       O443   2.310       .  S
Mg399       O439   2.285       .  S
Mg399       O410   2.306       .  S
O400       Mg442   2.157       .  S
O400       Mg425   2.160       .  S
O400        C421   1.236       .  S
O401        C432   1.269       .  A
O401       Mg425   2.294       .  S
C402       C1565   1.490       .  S
C402        O404   1.271       .  A
C402        O416   1.274       .  A
O403        C431   1.269       .  A
O403       Mg405   2.296       .  S
O404       Mg436   2.254       .  S
Mg405       O411   2.139       .  S
Mg405       O419   2.254       .  S
Mg405       O407   2.320       .  S
C406       C1117   1.489       .  S
C406        O444   1.273       .  A
C406        O412   1.271       .  A
O407        C414   1.277       .  A
H408        C421   1.081       .  S
C409        H434   1.081       .  S
C409        O423   1.236       .  S
C409        O424   1.271       .  A
O410        C433   1.272       .  A
O411       Mg425   2.156       .  S
O412       Mg442   2.298       .  S
C413       C1222   1.487       .  S
C413        O426   1.271       .  A
C413        O418   1.274       .  A
C414       C1085   1.495       .  S
C414        O441   1.273       .  A
Mg415       O422   2.157       .  S
Mg415       O423   2.152       .  S
Mg415       O416   2.310       .  S
Mg415       O417   2.308       .  S
Mg415       O444   2.279       .  S
O417        C421   1.271       .  A
O418       Mg425   2.305       .  S
O419        C438   1.273       .  A
O420        C440   1.277       .  A
O420       Mg436   2.321       .  S
O422       Mg436   2.153       .  S
O422        C433   1.236       .  S
O423       Mg442   2.156       .  S
O424       Mg436   2.309       .  S
Mg425       O441   2.288       .  S
O426       Mg442   2.258       .  S
H427        C432   1.081       .  S
O428       Mg436   2.136       .  S
O428        C431   1.235       .  S
H429        C431   1.081       .  S
H430        C433   1.081       .  S
O435       Mg442   2.296       .  S
C438       C1341   1.491       .  S
C438        O443   1.275       .  A
O439        C440   1.273       .  A
C440       C1149   1.497       .  S
N445        C450   1.357       .  A
N445        C449   1.355       .  A
N445        H477   1.035       .  S
N446        C453   1.352       .  A
N446        C454   1.353   1_565  A
N447        C452   1.354       .  A
N447        C451   1.356       .  A
N447        H478   1.037       .  S
N448        C455   1.355   1_545  A
N448        C456   1.353       .  A
C449        C457   1.387       .  A
C449        C465   1.421       .  A
C450        C466   1.423       .  A
C450        C458   1.388       .  A
C451        C459   1.387       .  A
C451        C468   1.418       .  A
C452        C467   1.418       .  A
C452        C460   1.387       .  A
C453        C465   1.418       .  A
C453        C461   1.388       .  A
C454        C468   1.415       .  A
C454        C462   1.385       .  A
C455        C463   1.386       .  A
C455        C466   1.420       .  A
C456        C464   1.387       .  A
C456        C467   1.419       .  A
C457        C458   1.377       .  A
C457        H469   1.082       .  S
C458        H470   1.082       .  S
C459        C460   1.376       .  A
C459        H471   1.083       .  S
C460        H472   1.082       .  S
C461        C462   1.373   1_565  A
C461        H473   1.082       .  S
C462        H474   1.082       .  S
C463        C464   1.373   1_565  A
C463        H475   1.082       .  S
C464        H476   1.082       .  S
C465       C1702   1.493       .  S
C466       C1158   1.500       .  S
C467       C1949   1.493       .  S
C468       C1062   1.496       .  S
O479       Mg481   2.169       .  S
O479       Mg487   2.157       .  S
O479        C514   1.234       .  S
C480        H519   1.081       .  S
C480        O493   1.235       .  S
C480        O517   1.270       .  A
Mg481       O510   2.162       .  S
Mg481       O525   2.311       .  S
Mg481       O521   2.283       .  S
Mg481       O492   2.294       .  S
O482       Mg524   2.157       .  S
O482       Mg507   2.166       .  S
O482        C503   1.236       .  S
O483        C514   1.270       .  A
O483       Mg507   2.303       .  S
C484       C2205   1.512       .  S
C484        O486   1.279       .  A
C484        O498   1.274       .  A
O485        C513   1.272       .  A
O485       Mg487   2.307       .  S
O486       Mg518   2.318       .  S
Mg487       O493   2.148       .  S
Mg487       O501   2.264       .  S
Mg487       O489   2.333       .  S
C488       C1053   1.495       .  S
C488        O526   1.272       .  A
C488        O494   1.273       .  A
O489        C496   1.276       .  A
H490        C503   1.081       .  S
C491        H516   1.081       .  S
C491        O505   1.235       .  S
C491        O506   1.271       .  A
O492        C515   1.269       .  A
O493       Mg507   2.156       .  S
O494       Mg524   2.307       .  S
C495       C1830   1.507       .  S
C495        O508   1.274       .  A
C495        O500   1.273       .  A
C496        C989   1.509       .  S
C496        O523   1.275       .  A
Mg497       O504   2.143       .  S
Mg497       O505   2.156       .  S
Mg497       O498   2.311       .  S
Mg497       O499   2.311       .  S
Mg497       O526   2.267       .  S
O499        C503   1.272       .  A
O500       Mg507   2.315       .  S
O501        C520   1.272       .  A
O502        C522   1.277       .  A
O502       Mg518   2.335       .  S
O504       Mg518   2.164       .  S
O504        C515   1.235       .  S
O505       Mg524   2.171       .  S
O506       Mg518   2.308       .  S
Mg507       O523   2.290       .  S
O508       Mg524   2.280       .  S
H509        C514   1.081       .  S
O510       Mg518   2.169       .  S
O510        C513   1.237       .  S
H511        C513   1.081       .  S
H512        C515   1.081       .  S
O517       Mg524   2.301       .  S
C520       C1181   1.490       .  S
C520        O525   1.275       .  A
O521        C522   1.276       .  A
C522       C1030   1.511       .  S
N527        C532   1.352       .  A
N527        C531   1.351   1_655  A
N527        H559   1.038       .  S
N528        C535   1.353       .  A
N528        C536   1.352       .  A
N529        C534   1.356       .  A
N529        C533   1.356   1_655  A
N529        H560   1.039       .  S
N530        C537   1.353       .  A
N530        C538   1.352       .  A
C531        C539   1.388       .  A
C531        C547   1.413       .  A
C532        C548   1.413       .  A
C532        C540   1.387       .  A
C533        C541   1.387       .  A
C533        C550   1.422       .  A
C534        C549   1.422       .  A
C534        C542   1.387       .  A
C535        C547   1.416       .  A
C535        C543   1.386       .  A
C536        C550   1.418       .  A
C536        C544   1.387       .  A
C537        C545   1.385       .  A
C537        C548   1.415       .  A
C538        C546   1.387       .  A
C538        C549   1.416       .  A
C539        C540   1.372   1_455  A
C539        H551   1.082       .  S
C540        H552   1.082       .  S
C541        C542   1.379   1_455  A
C541        H553   1.082       .  S
C542        H554   1.082       .  S
C543        C544   1.376       .  A
C543        H555   1.082       .  S
C544        H556   1.082       .  S
C545        C546   1.375       .  A
C545        H557   1.082       .  S
C546        H558   1.082       .  S
C547        C957   1.489       .  S
C548       C1661   1.491       .  S
C549       C1021   1.496       .  S
C550       C2077   1.498       .  S
O561       Mg563   2.152       .  S
O561       Mg569   2.156       .  S
O561        C596   1.236       .  S
C562        H601   1.081       .  S
C562        O575   1.235       .  S
C562        O599   1.269       .  A
Mg563       O592   2.146       .  S
Mg563       O607   2.299       .  S
Mg563       O603   2.263       .  S
Mg563       O574   2.311       .  S
O564       Mg606   2.152       .  S
O564       Mg589   2.145       .  S
O564        C585   1.235       .  S
O565        C596   1.271       .  A
O565       Mg589   2.302       .  S
C566        C925   1.504       .  S
C566        O568   1.270       .  A
C566        O580   1.276       .  A
O567        C595   1.272       .  A
O567       Mg569   2.309       .  S
O568       Mg600   2.268       .  S
Mg569       O575   2.149       .  S
Mg569       O583   2.287       .  S
Mg569       O571   2.338       .  S
C570       C1798   1.485       .  S
C570        O608   1.273       .  A
C570        O576   1.274       .  A
O571        C578   1.279       .  A
H572        C585   1.081       .  S
C573        H598   1.081       .  S
C573        O587   1.234       .  S
C573        O588   1.269       .  A
O574        C597   1.272       .  A
O575       Mg589   2.153       .  S
O576       Mg606   2.298       .  S
C577        C893   1.482       .  S
C577        O590   1.272       .  A
C577        O582   1.274       .  A
C578       C1286   1.481       .  S
C578        O605   1.270       .  A
Mg579       O586   2.171       .  S
Mg579       O587   2.156       .  S
Mg579       O580   2.302       .  S
Mg579       O581   2.299       .  S
Mg579       O608   2.287       .  S
O581        C585   1.269       .  A
O582       Mg589   2.309       .  S
O583        C602   1.274       .  A
O584        C604   1.275       .  A
O584       Mg600   2.324       .  S
O586       Mg600   2.164       .  S
O586        C597   1.237       .  S
O587       Mg606   2.149       .  S
O588       Mg600   2.300       .  S
Mg589       O605   2.252       .  S
O590       Mg606   2.263       .  S
H591        C596   1.081       .  S
O592       Mg600   2.158       .  S
O592        C595   1.236       .  S
H593        C595   1.081       .  S
H594        C597   1.081       .  S
O599       Mg606   2.295       .  S
C602        C966   1.492       .  S
C602        O607   1.274       .  A
O603        C604   1.270       .  A
C604       C1542   1.484       .  S
N609        C614   1.351       .  A
N609        C613   1.354       .  A
N609        H641   1.040       .  S
N610        C617   1.350       .  A
N610        C618   1.349   1_545  A
N611        C616   1.353       .  A
N611        C615   1.351       .  A
N611        H642   1.042       .  S
N612        C619   1.351   1_565  A
N612        C620   1.352       .  A
C613        C621   1.385       .  A
C613        C629   1.412       .  A
C614        C630   1.416       .  A
C614        C622   1.389       .  A
C615        C623   1.386       .  A
C615        C632   1.412       .  A
C616        C631   1.413       .  A
C616        C624   1.387       .  A
C617        C629   1.410       .  A
C617        C625   1.386       .  A
C618        C632   1.410       .  A
C618        C626   1.386       .  A
C619        C627   1.386       .  A
C619        C630   1.415       .  A
C620        C628   1.386       .  A
C620        C631   1.416       .  A
C621        C622   1.376       .  A
C621        H633   1.082       .  S
C622        H634   1.082       .  S
C623        C624   1.379       .  A
C623        H635   1.082       .  S
C624        H636   1.082       .  S
C625        C626   1.377   1_545  A
C625        H637   1.082       .  S
C626        H638   1.082       .  S
C627        C628   1.378   1_545  A
C627        H639   1.082       .  S
C628        H640   1.082       .  S
C629        C861   1.490       .  S
C630       C2118   1.490       .  S
C631        C934   1.496       .  S
C632       C1446   1.487       .  S
O643       Mg645   2.166       .  S
O643       Mg651   2.152       .  S
O643        C678   1.237       .  S
C644        H683   1.081       .  S
C644        O657   1.235       .  S
C644        O681   1.270       .  A
Mg645       O674   2.156       .  S
Mg645       O689   2.320       .  S
Mg645       O685   2.286       .  S
Mg645       O656   2.298       .  S
O646       Mg688   2.159       .  S
O646       Mg671   2.157       .  S
O646        C667   1.236       .  S
O647        C678   1.272       .  A
O647       Mg671   2.310       .  S
C648        C870   1.483       .  S
C648        O650   1.272       .  A
C648        O662   1.272       .  A
O649        C677   1.271       .  A
O649       Mg651   2.304       .  S
O650       Mg682   2.278       .  S
Mg651       O657   2.153       .  S
Mg651       O665   2.263       .  S
Mg651       O653   2.321       .  S
C652       C2246   1.480       .  S
C652        O690   1.269       .  A
C652        O658   1.275       .  A
O653        C660   1.276       .  A
H654        C667   1.081       .  S
C655        H680   1.081       .  S
C655        O669   1.236       .  S
C655        O670   1.271       .  A
O656        C679   1.270       .  A
O657       Mg671   2.151       .  S
O658       Mg688   2.317       .  S
C659        C829   1.482       .  S
C659        O672   1.271       .  A
C659        O664   1.278       .  A
C660       C1254   1.487       .  S
C660        O687   1.274       .  A
Mg661       O668   2.147       .  S
Mg661       O669   2.152       .  S
Mg661       O662   2.287       .  S
Mg661       O663   2.300       .  S
Mg661       O690   2.259       .  S
O663        C667   1.270       .  A
O664       Mg671   2.333       .  S
O665        C684   1.272       .  A
O666        C686   1.276       .  A
O666       Mg682   2.321       .  S
O668       Mg682   2.155       .  S
O668        C679   1.235       .  S
O669       Mg688   2.151       .  S
O670       Mg682   2.303       .  S
Mg671       O687   2.287       .  S
O672       Mg688   2.263       .  S
H673        C678   1.081       .  S
O674       Mg682   2.155       .  S
O674        C677   1.237       .  S
H675        C677   1.081       .  S
H676        C679   1.081       .  S
O681       Mg688   2.303       .  S
C684        C797   1.478       .  S
C684        O689   1.277       .  A
O685        C686   1.274       .  A
C686       C1309   1.489       .  S
N691        C696   1.357       .  A
N691        C695   1.356   1_455  A
N691        H723   1.037       .  S
N692        C699   1.352       .  A
N692        C700   1.354       .  A
N693        C698   1.352       .  A
N693        C697   1.354   1_455  A
N693        H724   1.034       .  S
N694        C701   1.353       .  A
N694        C702   1.353       .  A
C695        C703   1.387       .  A
C695        C711   1.423       .  A
C696        C712   1.422       .  A
C696        C704   1.387       .  A
C697        C705   1.388       .  A
C697        C714   1.420       .  A
C698        C713   1.419       .  A
C698        C706   1.388       .  A
C699        C711   1.417       .  A
C699        C707   1.387       .  A
C700        C714   1.418       .  A
C700        C708   1.386       .  A
C701        C709   1.387       .  A
C701        C712   1.417       .  A
C702        C710   1.387       .  A
C702        C713   1.419       .  A
C703        C704   1.377   1_655  A
C703        H715   1.082       .  S
C704        H716   1.082       .  S
C705        C706   1.375   1_655  A
C705        H717   1.082       .  S
C706        H718   1.082       .  S
C707        C708   1.370       .  A
C707        H719   1.082       .  S
C708        H720   1.082       .  S
C709        C710   1.373       .  A
C709        H721   1.082       .  S
C710        H722   1.082       .  S
C711       C1926   1.493       .  S
C712        C838   1.497       .  S
C713       C1405   1.489       .  S
C714       C1126   1.493       .  S
N725        C730   1.355       .  A
N725        C729   1.356       .  A
N725        H757   1.028       .  S
N726        C733   1.354       .  A
N726        C734   1.353   1_554  A
N727        C732   1.356       .  A
N727        C731   1.355       .  A
N727        H758   1.034       .  S
N728        C735   1.351   1_556  A
N728        C736   1.351       .  A
C729        C737   1.387       .  A
C729        C745   1.424       .  A
C730        C746   1.424       .  A
C730        C738   1.389       .  A
C731        C739   1.388       .  A
C731        C748   1.420       .  A
C732        C747   1.418       .  A
C732        C740   1.387       .  A
C733        C745   1.424       .  A
C733        C741   1.387       .  A
C734        C748   1.420       .  A
C734        C742   1.386       .  A
C735        C743   1.387       .  A
C735        C746   1.418       .  A
C736        C744   1.386       .  A
C736        C747   1.415       .  A
C737        C738   1.373       .  A
C737        H749   1.082       .  S
C738        H750   1.082       .  S
C739        C740   1.370       .  A
C739        H751   1.082       .  S
C740        H752   1.082       .  S
C741        C742   1.375   1_554  A
C741        H753   1.082       .  S
C742        H754   1.082       .  S
C743        C744   1.374   1_554  A
C743        H755   1.082       .  S
C744        H756   1.082       .  S
C745        C998   1.499       .  S
C746       C2054   1.490       .  S
C747        C806   1.489       .  S
C748       C1894   1.495       .  S
N759        C764   1.353   1_556  A
N759        C763   1.352       .  A
N759        H791   1.048       .  S
N760        C767   1.353       .  A
N760        C768   1.354       .  A
N761        C766   1.352   1_556  A
N761        C765   1.353       .  A
N761        H792   1.048       .  S
N762        C769   1.353       .  A
N762        C770   1.352       .  A
C763        C771   1.388       .  A
C763        C779   1.419       .  A
C764        C780   1.418       .  A
C764        C772   1.388       .  A
C765        C773   1.388       .  A
C765        C782   1.417       .  A
C766        C781   1.417       .  A
C766        C774   1.388       .  A
C767        C779   1.418       .  A
C767        C775   1.387       .  A
C768        C782   1.418       .  A
C768        C776   1.385       .  A
C769        C777   1.386       .  A
C769        C780   1.417       .  A
C770        C778   1.386       .  A
C770        C781   1.416       .  A
C771        C772   1.374   1_556  A
C771        H783   1.082       .  S
C772        H784   1.082       .  S
C773        C774   1.373   1_556  A
C773        H785   1.082       .  S
C774        H786   1.082       .  S
C775        C776   1.374       .  A
C775        H787   1.082       .  S
C776        H788   1.082       .  S
C777        C778   1.374       .  A
C777        H789   1.082       .  S
C778        H790   1.082       .  S
C779       C1382   1.490       .  S
C780        C902   1.492       .  S
C781       C1638   1.486       .  S
C782       C1094   1.495       .  S
C793        C794   1.403       .  A
C793        C798   1.407       .  A
C793        H803   1.085       .  S
C794        C795   1.416       .  A
C794        C799   1.486       .  S
C795        C796   1.406       .  A
C795        C800   1.520       .  S
C796        C797   1.405       .  A
C796        H801   1.083       .  S
C797        C798   1.418       .  A
C798        C802   1.517       .  S
C799        C804   1.419       .  A
C799        C808   1.402       .  A
C800        F816   1.382       .  S
C800        F817   1.383       .  S
C800        F818   1.385       .  S
C802        F813   1.382       .  S
C802        F814   1.384       .  S
C802        F815   1.381       .  S
C804        C805   1.406       .  A
C804        C809   1.520       .  S
C805        C806   1.401       .  A
C805        H810   1.083       .  S
C806        C807   1.416       .  A
C807        C808   1.406       .  A
C807        C811   1.518       .  S
C808        H812   1.083       .  S
C809        F822   1.385       .  S
C809        F823   1.382       .  S
C809        F824   1.382       .  S
C811        F819   1.385       .  S
C811        F820   1.382       .  S
C811        F821   1.382       .  S
C825        C826   1.406       .  A
C825        C830   1.411       .  A
C825        H835   1.083       .  S
C826        C827   1.414       .  A
C826        C831   1.490       .  S
C827        C828   1.408       .  A
C827        C832   1.519       .  S
C828        C829   1.405       .  A
C828        H833   1.083       .  S
C829        C830   1.414       .  A
C830        C834   1.516       .  S
C831        C836   1.419       .  A
C831        C840   1.402       .  A
C832        F848   1.383       .  S
C832        F849   1.382       .  S
C832        F850   1.384       .  S
C834        F845   1.380       .  S
C834        F846   1.384       .  S
C834        F847   1.385       .  S
C836        C837   1.410       .  A
C836        C841   1.521       .  S
C837        C838   1.403       .  A
C837        H842   1.083       .  S
C838        C839   1.418       .  A
C839        C840   1.410       .  A
C839        C843   1.518       .  S
C840        H844   1.083       .  S
C841        F854   1.384       .  S
C841        F855   1.382       .  S
C841        F856   1.382       .  S
C843        F851   1.384       .  S
C843        F852   1.382       .  S
C843        F853   1.382       .  S
C857        C858   1.403       .  A
C857        C862   1.407       .  A
C857        H867   1.083       .  S
C858        C859   1.416       .  A
C858        C863   1.486       .  S
C859        C860   1.408       .  A
C859        C864   1.518       .  S
C860        C861   1.403       .  A
C860        H865   1.083       .  S
C861        C862   1.417       .  A
C862        C866   1.519       .  S
C863        C868   1.416       .  A
C863        C872   1.401       .  A
C864        F880   1.382       .  S
C864        F881   1.382       .  S
C864        F882   1.384       .  S
C866        F877   1.385       .  S
C866        F878   1.381       .  S
C866        F879   1.383       .  S
C868        C869   1.408       .  A
C868        C873   1.520       .  S
C869        C870   1.406       .  A
C869        H874   1.083       .  S
C870        C871   1.420       .  A
C871        C872   1.407       .  A
C871        C875   1.521       .  S
C872        H876   1.083       .  S
C873        F886   1.384       .  S
C873        F887   1.382       .  S
C873        F888   1.382       .  S
C875        F883   1.384       .  S
C875        F884   1.384       .  S
C875        F885   1.382       .  S
C889        C890   1.404       .  A
C889        C894   1.410       .  A
C889        H899   1.083       .  S
C890        C891   1.415       .  A
C890        C895   1.487       .  S
C891        C892   1.405       .  A
C891        C896   1.520       .  S
C892        C893   1.405       .  A
C892        H897   1.083       .  S
C893        C894   1.418       .  A
C894        C898   1.518       .  S
C895        C900   1.418       .  A
C895        C904   1.402       .  A
C896        F912   1.382       .  S
C896        F913   1.382       .  S
C896        F914   1.385       .  S
C898        F909   1.382       .  S
C898        F910   1.385       .  S
C898        F911   1.384       .  S
C900        C901   1.408       .  A
C900        C905   1.519       .  S
C901        C902   1.403       .  A
C901        H906   1.083       .  S
C902        C903   1.416       .  A
C903        C904   1.407       .  A
C903        C907   1.517       .  S
C904        H908   1.083       .  S
C905        F918   1.385       .  S
C905        F919   1.382       .  S
C905        F920   1.382       .  S
C907        F915   1.382       .  S
C907        F916   1.382       .  S
C907        F917   1.384       .  S
C921        C922   1.401       .  A
C921        C926   1.411       .  A
C921        H931   1.082       .  S
C922        C923   1.416       .  A
C922        C927   1.492       .  S
C923        C924   1.406       .  A
C923        C928   1.522       .  S
C924        C925   1.411       .  A
C924        H929   1.079       .  S
C925        C926   1.427       .  A
C926        C930   1.520       .  S
C927        C932   1.418       .  A
C927        C936   1.404       .  A
C928        F944   1.381       .  S
C928        F945   1.383       .  S
C928        F946   1.384       .  S
C930        F941   1.384       .  S
C930        F942   1.384       .  S
C930        F943   1.381       .  S
C932        C933   1.408       .  A
C932        C937   1.520       .  S
C933        C934   1.404       .  A
C933        H938   1.083       .  S
C934        C935   1.420       .  A
C935        C936   1.409       .  A
C935        C939   1.521       .  S
C936        H940   1.083       .  S
C937        F950   1.384       .  S
C937        F951   1.382       .  S
C937        F952   1.383       .  S
C939        F947   1.385       .  S
C939        F948   1.380       .  S
C939        F949   1.383       .  S
C953        C954   1.404       .  A
C953        C958   1.407       .  A
C953        H963   1.083       .  S
C954        C955   1.418       .  A
C954        C959   1.487       .  S
C955        C956   1.406       .  A
C955        C960   1.519       .  S
C956        C957   1.402       .  A
C956        H961   1.083       .  S
C957        C958   1.414       .  A
C958        C962   1.518       .  S
C959        C964   1.417       .  A
C959        C968   1.398       .  A
C960        F976   1.382       .  S
C960        F977   1.383       .  S
C960        F978   1.385       .  S
C962        F973   1.384       .  S
C962        F974   1.382       .  S
C962        F975   1.383       .  S
C964        C965   1.411       .  A
C964        C969   1.520       .  S
C965        C966   1.409       .  A
C965        H970   1.083       .  S
C966        C967   1.421       .  A
C967        C968   1.404       .  A
C967        C971   1.516       .  S
C968        H972   1.083       .  S
C969        F982   1.385       .  S
C969        F983   1.382       .  S
C969        F984   1.383       .  S
C971        F979   1.385       .  S
C971        F980   1.382       .  S
C971        F981   1.383       .  S
C985        C986   1.400       .  A
C985        C990   1.414       .  A
C985        H995   1.083       .  S
C986        C987   1.416       .  A
C986        C991   1.497       .  S
C987        C988   1.412       .  A
C987        C992   1.520       .  S
C988        C989   1.412       .  A
C988        H993   1.082       .  S
C989        C990   1.431       .  A
C990        C994   1.522       .  S
C991        C996   1.418       .  A
C991       C1000   1.404       .  A
C992       F1008   1.382       .  S
C992       F1009   1.383       .  S
C992       F1010   1.384       .  S
C994       F1005   1.385       .  S
C994       F1006   1.384       .  S
C994       F1007   1.383       .  S
C996        C997   1.410       .  A
C996       C1001   1.518       .  S
C997        C998   1.405       .  A
C997       H1002   1.083       .  S
C998        C999   1.420       .  A
C999       C1000   1.409       .  A
C999       C1003   1.518       .  S
C1000      H1004   1.084       .  S
C1001      F1014   1.385       .  S
C1001      F1015   1.382       .  S
C1001      F1016   1.382       .  S
C1003      F1011   1.383       .  S
C1003      F1012   1.384       .  S
C1003      F1013   1.381       .  S
C1017      C1018   1.405       .  A
C1017      C1022   1.409       .  A
C1017      H1027   1.083       .  S
C1018      C1019   1.418       .  A
C1018      C1023   1.494       .  S
C1019      C1020   1.412       .  A
C1019      C1024   1.519       .  S
C1020      C1021   1.405       .  A
C1020      H1025   1.083       .  S
C1021      C1022   1.415       .  A
C1022      C1026   1.518       .  S
C1023      C1028   1.414       .  A
C1023      C1032   1.401       .  A
C1024      F1040   1.382       .  S
C1024      F1041   1.381       .  S
C1024      F1042   1.385       .  S
C1026      F1037   1.384       .  S
C1026      F1038   1.382       .  S
C1026      F1039   1.383       .  S
C1028      C1029   1.410       .  A
C1028      C1033   1.522       .  S
C1029      C1030   1.414       .  A
C1029      H1034   1.082       .  S
C1030      C1031   1.431       .  A
C1031      C1032   1.414       .  A
C1031      C1035   1.522       .  S
C1032      H1036   1.083       .  S
C1033      F1046   1.385       .  S
C1033      F1047   1.382       .  S
C1033      F1048   1.381       .  S
C1035      F1043   1.385       .  S
C1035      F1044   1.383       .  S
C1035      F1045   1.383       .  S
C1049      C1050   1.400       .  A
C1049      C1054   1.410       .  A
C1049      H1059   1.083       .  S
C1050      C1051   1.415       .  A
C1050      C1055   1.488       .  S
C1051      C1052   1.408       .  A
C1051      C1056   1.520       .  S
C1052      C1053   1.408       .  A
C1052      H1057   1.083       .  S
C1053      C1054   1.427       .  A
C1054      C1058   1.522       .  S
C1055      C1060   1.416       .  A
C1055      C1064   1.402       .  A
C1056      F1072   1.382       .  S
C1056      F1073   1.382       .  S
C1056      F1074   1.384       .  S
C1058      F1069   1.382       .  S
C1058      F1070   1.385       .  S
C1058      F1071   1.384       .  S
C1060      C1061   1.409       .  A
C1060      C1065   1.518       .  S
C1061      C1062   1.404       .  A
C1061      H1066   1.083       .  S
C1062      C1063   1.418       .  A
C1063      C1064   1.408       .  A
C1063      C1067   1.518       .  S
C1064      H1068   1.083       .  S
C1065      F1078   1.384       .  S
C1065      F1079   1.382       .  S
C1065      F1080   1.382       .  S
C1067      F1075   1.381       .  S
C1067      F1076   1.382       .  S
C1067      F1077   1.385       .  S
C1081      C1082   1.404       .  A
C1081      C1086   1.413       .  A
C1081      H1091   1.083       .  S
C1082      C1083   1.415       .  A
C1082      C1087   1.492       .  S
C1083      C1084   1.409       .  A
C1083      C1088   1.520       .  S
C1084      C1085   1.408       .  A
C1084      H1089   1.083       .  S
C1085      C1086   1.421       .  A
C1086      C1090   1.517       .  S
C1087      C1092   1.418       .  A
C1087      C1096   1.403       .  A
C1088      F1104   1.382       .  S
C1088      F1105   1.382       .  S
C1088      F1106   1.384       .  S
C1090      F1101   1.379       .  S
C1090      F1102   1.385       .  S
C1090      F1103   1.384       .  S
C1092      C1093   1.410       .  A
C1092      C1097   1.519       .  S
C1093      C1094   1.404       .  A
C1093      H1098   1.083       .  S
C1094      C1095   1.416       .  A
C1095      C1096   1.409       .  A
C1095      C1099   1.518       .  S
C1096      H1100   1.083       .  S
C1097      F1110   1.385       .  S
C1097      F1111   1.383       .  S
C1097      F1112   1.382       .  S
C1099      F1107   1.383       .  S
C1099      F1108   1.382       .  S
C1099      F1109   1.384       .  S
C1113      C1114   1.400       .  A
C1113      C1118   1.410       .  A
C1113      H1123   1.083       .  S
C1114      C1115   1.416       .  A
C1114      C1119   1.488       .  S
C1115      C1116   1.408       .  A
C1115      C1120   1.518       .  S
C1116      C1117   1.404       .  A
C1116      H1121   1.083       .  S
C1117      C1118   1.426       .  A
C1118      C1122   1.522       .  S
C1119      C1124   1.416       .  A
C1119      C1128   1.403       .  A
C1120      F1136   1.382       .  S
C1120      F1137   1.383       .  S
C1120      F1138   1.384       .  S
C1122      F1133   1.383       .  S
C1122      F1134   1.385       .  S
C1122      F1135   1.384       .  S
C1124      C1125   1.408       .  A
C1124      C1129   1.518       .  S
C1125      C1126   1.404       .  A
C1125      H1130   1.083       .  S
C1126      C1127   1.417       .  A
C1127      C1128   1.407       .  A
C1127      C1131   1.518       .  S
C1128      H1132   1.083       .  S
C1129      F1142   1.385       .  S
C1129      F1143   1.383       .  S
C1129      F1144   1.382       .  S
C1131      F1139   1.382       .  S
C1131      F1140   1.381       .  S
C1131      F1141   1.385       .  S
C1145      C1146   1.403       .  A
C1145      C1150   1.412       .  A
C1145      H1155   1.083       .  S
C1146      C1147   1.415       .  A
C1146      C1151   1.493       .  S
C1147      C1148   1.408       .  A
C1147      C1152   1.519       .  S
C1148      C1149   1.409       .  A
C1148      H1153   1.082       .  S
C1149      C1150   1.423       .  A
C1150      C1154   1.518       .  S
C1151      C1156   1.419       .  A
C1151      C1160   1.402       .  A
C1152      F1168   1.383       .  S
C1152      F1169   1.382       .  S
C1152      F1170   1.385       .  S
C1154      F1165   1.380       .  S
C1154      F1166   1.385       .  S
C1154      F1167   1.384       .  S
C1156      C1157   1.410       .  A
C1156      C1161   1.519       .  S
C1157      C1158   1.404       .  A
C1157      H1162   1.083       .  S
C1158      C1159   1.420       .  A
C1159      C1160   1.411       .  A
C1159      C1163   1.518       .  S
C1160      H1164   1.083       .  S
C1161      F1174   1.384       .  S
C1161      F1175   1.383       .  S
C1161      F1176   1.383       .  S
C1163      F1171   1.384       .  S
C1163      F1172   1.382       .  S
C1163      F1173   1.381       .  S
C1177      C1178   1.399       .  A
C1177      C1182   1.408       .  A
C1177      H1187   1.083       .  S
C1178      C1179   1.415       .  A
C1178      C1183   1.486       .  S
C1179      C1180   1.408       .  A
C1179      C1184   1.519       .  S
C1180      C1181   1.407       .  A
C1180      H1185   1.083       .  S
C1181      C1182   1.426       .  A
C1182      C1186   1.521       .  S
C1183      C1188   1.418       .  A
C1183      C1192   1.401       .  A
C1184      F1200   1.383       .  S
C1184      F1201   1.382       .  S
C1184      F1202   1.385       .  S
C1186      F1197   1.384       .  S
C1186      F1198   1.385       .  S
C1186      F1199   1.383       .  S
C1188      C1189   1.409       .  A
C1188      C1193   1.519       .  S
C1189      C1190   1.404       .  A
C1189      H1194   1.083       .  S
C1190      C1191   1.415       .  A
C1191      C1192   1.406       .  A
C1191      C1195   1.517       .  S
C1192      H1196   1.083       .  S
C1193      F1206   1.385       .  S
C1193      F1207   1.383       .  S
C1193      F1208   1.382       .  S
C1195      F1203   1.383       .  S
C1195      F1204   1.382       .  S
C1195      F1205   1.384       .  S
C1209      C1210   1.403       .  A
C1209      C1214   1.408       .  A
C1209      H1219   1.083       .  S
C1210      C1211   1.417       .  A
C1210      C1215   1.485       .  S
C1211      C1212   1.405       .  A
C1211      C1216   1.519       .  S
C1212      C1213   1.401       .  A
C1212      H1217   1.083       .  S
C1213      C1214   1.416       .  A
C1214      C1218   1.517       .  S
C1215      C1220   1.415       .  A
C1215      C1224   1.400       .  A
C1216      F1232   1.382       .  S
C1216      F1233   1.385       .  S
C1216      F1234   1.382       .  S
C1218      F1229   1.382       .  S
C1218      F1230   1.385       .  S
C1218      F1231   1.382       .  S
C1220      C1221   1.408       .  A
C1220      C1225   1.518       .  S
C1221      C1222   1.405       .  A
C1221      H1226   1.083       .  S
C1222      C1223   1.424       .  A
C1223      C1224   1.407       .  A
C1223      C1227   1.520       .  S
C1224      H1228   1.083       .  S
C1225      F1238   1.384       .  S
C1225      F1239   1.382       .  S
C1225      F1240   1.383       .  S
C1227      F1235   1.381       .  S
C1227      F1236   1.385       .  S
C1227      F1237   1.384       .  S
C1241      C1242   1.403       .  A
C1241      C1246   1.411       .  A
C1241      H1251   1.083       .  S
C1242      C1243   1.419       .  A
C1242      C1247   1.491       .  S
C1243      C1244   1.410       .  A
C1243      C1248   1.520       .  S
C1244      C1245   1.403       .  A
C1244      H1249   1.083       .  S
C1245      C1246   1.418       .  A
C1246      C1250   1.518       .  S
C1247      C1252   1.416       .  A
C1247      C1256   1.401       .  A
C1248      F1264   1.382       .  S
C1248      F1265   1.382       .  S
C1248      F1266   1.384       .  S
C1250      F1261   1.382       .  S
C1250      F1262   1.384       .  S
C1250      F1263   1.383       .  S
C1252      C1253   1.412       .  A
C1252      C1257   1.518       .  S
C1253      C1254   1.406       .  A
C1253      H1258   1.083       .  S
C1254      C1255   1.420       .  A
C1255      C1256   1.409       .  A
C1255      C1259   1.518       .  S
C1256      H1260   1.083       .  S
C1257      F1270   1.385       .  S
C1257      F1271   1.383       .  S
C1257      F1272   1.381       .  S
C1259      F1267   1.383       .  S
C1259      F1268   1.383       .  S
C1259      F1269   1.385       .  S
C1273      C1274   1.401       .  A
C1273      C1278   1.404       .  A
C1273      H1283   1.083       .  S
C1274      C1275   1.416       .  A
C1274      C1279   1.485       .  S
C1275      C1276   1.410       .  A
C1275      C1280   1.519       .  S
C1276      C1277   1.405       .  A
C1276      H1281   1.083       .  S
C1277      C1278   1.416       .  A
C1278      C1282   1.518       .  S
C1279      C1284   1.416       .  A
C1279      C1288   1.403       .  A
C1280      F1296   1.382       .  S
C1280      F1297   1.382       .  S
C1280      F1298   1.385       .  S
C1282      F1293   1.385       .  S
C1282      F1294   1.382       .  S
C1282      F1295   1.382       .  S
C1284      C1285   1.407       .  A
C1284      C1289   1.521       .  S
C1285      C1286   1.404       .  A
C1285      H1290   1.083       .  S
C1286      C1287   1.415       .  A
C1287      C1288   1.409       .  A
C1287      C1291   1.515       .  S
C1288      H1292   1.083       .  S
C1289      F1302   1.384       .  S
C1289      F1303   1.382       .  S
C1289      F1304   1.382       .  S
C1291      F1299   1.378       .  S
C1291      F1300   1.383       .  S
C1291      F1301   1.384       .  S
C1305      C1306   1.402       .  A
C1305      C1310   1.409       .  A
C1305      H1315   1.083       .  S
C1306      C1307   1.419       .  A
C1306      C1311   1.496       .  S
C1307      C1308   1.413       .  A
C1307      C1312   1.518       .  S
C1308      C1309   1.406       .  A
C1308      H1313   1.083       .  S
C1309      C1310   1.419       .  A
C1310      C1314   1.519       .  S
C1311      C1316   1.419       .  A
C1311      C1320   1.406       .  A
C1312      F1328   1.382       .  S
C1312      F1329   1.382       .  S
C1312      F1330   1.385       .  S
C1314      F1325   1.385       .  S
C1314      F1326   1.381       .  S
C1314      F1327   1.384       .  S
C1316      C1317   1.409       .  A
C1316      C1321   1.520       .  S
C1317      C1318   1.402       .  A
C1317      H1322   1.083       .  S
C1318      C1319   1.419       .  A
C1319      C1320   1.413       .  A
C1319      C1323   1.520       .  S
C1320      H1324   1.083       .  S
C1321      F1334   1.384       .  S
C1321      F1335   1.382       .  S
C1321      F1336   1.382       .  S
C1323      F1331   1.384       .  S
C1323      F1332   1.383       .  S
C1323      F1333   1.381       .  S
C1337      C1338   1.399       .  A
C1337      C1342   1.407       .  A
C1337      H1347   1.083       .  S
C1338      C1339   1.412       .  A
C1338      C1343   1.482       .  S
C1339      C1340   1.406       .  A
C1339      C1344   1.520       .  S
C1340      C1341   1.409       .  A
C1340      H1345   1.083       .  S
C1341      C1342   1.425       .  A
C1342      C1346   1.520       .  S
C1343      C1348   1.417       .  A
C1343      C1352   1.400       .  A
C1344      F1360   1.382       .  S
C1344      F1361   1.382       .  S
C1344      F1362   1.385       .  S
C1346      F1357   1.385       .  S
C1346      F1358   1.383       .  S
C1346      F1359   1.384       .  S
C1348      C1349   1.409       .  A
C1348      C1353   1.521       .  S
C1349      C1350   1.404       .  A
C1349      H1354   1.083       .  S
C1350      C1351   1.416       .  A
C1351      C1352   1.405       .  A
C1351      C1355   1.518       .  S
C1352      H1356   1.083       .  S
C1353      F1366   1.384       .  S
C1353      F1367   1.382       .  S
C1353      F1368   1.382       .  S
C1355      F1363   1.384       .  S
C1355      F1364   1.383       .  S
C1355      F1365   1.381       .  S
C1369      C1370   1.403       .  A
C1369      C1374   1.408       .  A
C1369      H1379   1.083       .  S
C1370      C1371   1.416       .  A
C1370      C1375   1.486       .  S
C1371      C1372   1.406       .  A
C1371      C1376   1.520       .  S
C1372      C1373   1.406       .  A
C1372      H1377   1.083       .  S
C1373      C1374   1.417       .  A
C1374      C1378   1.518       .  S
C1375      C1380   1.416       .  A
C1375      C1384   1.404       .  A
C1376      F1392   1.382       .  S
C1376      F1393   1.382       .  S
C1376      F1394   1.385       .  S
C1378      F1389   1.384       .  S
C1378      F1390   1.384       .  S
C1378      F1391   1.381       .  S
C1380      C1381   1.407       .  A
C1380      C1385   1.520       .  S
C1381      C1382   1.403       .  A
C1381      H1386   1.083       .  S
C1382      C1383   1.415       .  A
C1383      C1384   1.407       .  A
C1383      C1387   1.519       .  S
C1384      H1388   1.083       .  S
C1385      F1398   1.384       .  S
C1385      F1399   1.382       .  S
C1385      F1400   1.382       .  S
C1387      F1395   1.384       .  S
C1387      F1396   1.382       .  S
C1387      F1397   1.382       .  S
C1401      C1402   1.402       .  A
C1401      C1406   1.406       .  A
C1401      H1411   1.083       .  S
C1402      C1403   1.415       .  A
C1402      C1407   1.481       .  S
C1403      C1404   1.406       .  A
C1403      C1408   1.517       .  S
C1404      C1405   1.403       .  A
C1404      H1409   1.083       .  S
C1405      C1406   1.416       .  A
C1406      C1410   1.518       .  S
C1407      C1412   1.415       .  A
C1407      C1416   1.402       .  A
C1408      F1424   1.383       .  S
C1408      F1425   1.382       .  S
C1408      F1426   1.385       .  S
C1410      F1421   1.382       .  S
C1410      F1422   1.385       .  S
C1410      F1423   1.382       .  S
C1412      C1413   1.403       .  A
C1412      C1417   1.520       .  S
C1413      C1414   1.408       .  A
C1413      H1418   1.084       .  S
C1414      C1415   1.426       .  A
C1415      C1416   1.410       .  A
C1415      C1419   1.522       .  S
C1416      H1420   1.083       .  S
C1417      F1430   1.383       .  S
C1417      F1431   1.383       .  S
C1417      F1432   1.381       .  S
C1419      F1427   1.382       .  S
C1419      F1428   1.383       .  S
C1419      F1429   1.385       .  S
C1433      C1434   1.397       .  A
C1433      C1438   1.409       .  A
C1433      H1443   1.083       .  S
C1434      C1435   1.412       .  A
C1434      C1439   1.487       .  S
C1435      C1436   1.409       .  A
C1435      C1440   1.520       .  S
C1436      C1437   1.414       .  A
C1436      H1441   1.082       .  S
C1437      C1438   1.430       .  A
C1438      C1442   1.517       .  S
C1439      C1444   1.418       .  A
C1439      C1448   1.403       .  A
C1440      F1456   1.382       .  S
C1440      F1457   1.383       .  S
C1440      F1458   1.384       .  S
C1442      F1453   1.382       .  S
C1442      F1454   1.385       .  S
C1442      F1455   1.383       .  S
C1444      C1445   1.405       .  A
C1444      C1449   1.520       .  S
C1445      C1446   1.402       .  A
C1445      H1450   1.083       .  S
C1446      C1447   1.418       .  A
C1447      C1448   1.408       .  A
C1447      C1451   1.519       .  S
C1448      H1452   1.084       .  S
C1449      F1462   1.385       .  S
C1449      F1463   1.382       .  S
C1449      F1464   1.382       .  S
C1451      F1459   1.384       .  S
C1451      F1460   1.382       .  S
C1451      F1461   1.383       .  S
C1465      C1466   1.398       .  A
C1465      C1470   1.413       .  A
C1465      H1475   1.083       .  S
C1466      C1467   1.415       .  A
C1466      C1471   1.495       .  S
C1467      C1468   1.412       .  A
C1467      C1472   1.520       .  S
C1468      C1469   1.411       .  A
C1468      H1473   1.082       .  S
C1469      C1470   1.435       .  A
C1470      C1474   1.523       .  S
C1471      C1476   1.418       .  A
C1471      C1480   1.404       .  A
C1472      F1488   1.382       .  S
C1472      F1489   1.382       .  S
C1472      F1490   1.384       .  S
C1474      F1485   1.385       .  S
C1474      F1486   1.383       .  S
C1474      F1487   1.383       .  S
C1476      C1477   1.412       .  A
C1476      C1481   1.518       .  S
C1477      C1478   1.404       .  A
C1477      H1482   1.083       .  S
C1478      C1479   1.417       .  A
C1479      C1480   1.409       .  A
C1479      C1483   1.518       .  S
C1480      H1484   1.083       .  S
C1481      F1494   1.385       .  S
C1481      F1495   1.382       .  S
C1481      F1496   1.382       .  S
C1483      F1491   1.385       .  S
C1483      F1492   1.383       .  S
C1483      F1493   1.382       .  S
C1497      C1498   1.402       .  A
C1497      C1502   1.409       .  A
C1497      H1507   1.083       .  S
C1498      C1499   1.418       .  A
C1498      C1503   1.488       .  S
C1499      C1500   1.408       .  A
C1499      C1504   1.519       .  S
C1500      C1501   1.402       .  A
C1500      H1505   1.083       .  S
C1501      C1502   1.417       .  A
C1502      C1506   1.517       .  S
C1503      C1508   1.413       .  A
C1503      C1512   1.400       .  A
C1504      F1520   1.382       .  S
C1504      F1521   1.382       .  S
C1504      F1522   1.385       .  S
C1506      F1517   1.384       .  S
C1506      F1518   1.382       .  S
C1506      F1519   1.383       .  S
C1508      C1509   1.408       .  A
C1508      C1513   1.519       .  S
C1509      C1510   1.411       .  A
C1509      H1514   1.082       .  S
C1510      C1511   1.428       .  A
C1511      C1512   1.410       .  A
C1511      C1515   1.521       .  S
C1512      H1516   1.083       .  S
C1513      F1526   1.385       .  S
C1513      F1527   1.383       .  S
C1513      F1528   1.383       .  S
C1515      F1523   1.385       .  S
C1515      F1524   1.384       .  S
C1515      F1525   1.383       .  S
C1529      C1530   1.404       .  A
C1529      C1534   1.408       .  A
C1529      H1539   1.083       .  S
C1530      C1531   1.417       .  A
C1530      C1535   1.489       .  S
C1531      C1532   1.407       .  A
C1531      C1536   1.518       .  S
C1532      C1533   1.402       .  A
C1532      H1537   1.083       .  S
C1533      C1534   1.416       .  A
C1534      C1538   1.519       .  S
C1535      C1540   1.416       .  A
C1535      C1544   1.405       .  A
C1536      F1552   1.381       .  S
C1536      F1553   1.382       .  S
C1536      F1554   1.385       .  S
C1538      F1549   1.382       .  S
C1538      F1550   1.385       .  S
C1538      F1551   1.382       .  S
C1540      C1541   1.408       .  A
C1540      C1545   1.521       .  S
C1541      C1542   1.406       .  A
C1541      H1546   1.083       .  S
C1542      C1543   1.415       .  A
C1543      C1544   1.410       .  A
C1543      C1547   1.516       .  S
C1544      H1548   1.083       .  S
C1545      F1558   1.384       .  S
C1545      F1559   1.382       .  S
C1545      F1560   1.382       .  S
C1547      F1555   1.380       .  S
C1547      F1556   1.383       .  S
C1547      F1557   1.384       .  S
C1561      C1562   1.398       .  A
C1561      C1566   1.405       .  A
C1561      H1571   1.083       .  S
C1562      C1563   1.414       .  A
C1562      C1567   1.482       .  S
C1563      C1564   1.407       .  A
C1563      C1568   1.520       .  S
C1564      C1565   1.409       .  A
C1564      H1569   1.083       .  S
C1565      C1566   1.426       .  A
C1566      C1570   1.521       .  S
C1567      C1572   1.418       .  A
C1567      C1576   1.400       .  A
C1568      F1584   1.382       .  S
C1568      F1585   1.382       .  S
C1568      F1586   1.385       .  S
C1570      F1581   1.383       .  S
C1570      F1582   1.385       .  S
C1570      F1583   1.383       .  S
C1572      C1573   1.406       .  A
C1572      C1577   1.520       .  S
C1573      C1574   1.401       .  A
C1573      H1578   1.083       .  S
C1574      C1575   1.419       .  A
C1575      C1576   1.406       .  A
C1575      C1579   1.520       .  S
C1576      H1580   1.083       .  S
C1577      F1590   1.385       .  S
C1577      F1591   1.382       .  S
C1577      F1592   1.382       .  S
C1579      F1587   1.384       .  S
C1579      F1588   1.383       .  S
C1579      F1589   1.381       .  S
C1593      C1594   1.403       .  A
C1593      C1598   1.410       .  A
C1593      H1603   1.083       .  S
C1594      C1595   1.418       .  A
C1594      C1599   1.491       .  S
C1595      C1596   1.411       .  A
C1595      C1600   1.520       .  S
C1596      C1597   1.404       .  A
C1596      H1601   1.083       .  S
C1597      C1598   1.417       .  A
C1598      C1602   1.517       .  S
C1599      C1604   1.414       .  A
C1599      C1608   1.402       .  A
C1600      F1616   1.383       .  S
C1600      F1617   1.382       .  S
C1600      F1618   1.384       .  S
C1602      F1613   1.382       .  S
C1602      F1614   1.385       .  S
C1602      F1615   1.383       .  S
C1604      C1605   1.409       .  A
C1604      C1609   1.520       .  S
C1605      C1606   1.409       .  A
C1605      H1610   1.083       .  S
C1606      C1607   1.423       .  A
C1607      C1608   1.412       .  A
C1607      C1611   1.518       .  S
C1608      H1612   1.083       .  S
C1609      F1622   1.384       .  S
C1609      F1623   1.382       .  S
C1609      F1624   1.382       .  S
C1611      F1619   1.384       .  S
C1611      F1620   1.384       .  S
C1611      F1621   1.377       .  S
C1625      C1626   1.398       .  A
C1625      C1630   1.403       .  A
C1625      H1635   1.083       .  S
C1626      C1627   1.417       .  A
C1626      C1631   1.483       .  S
C1627      C1628   1.410       .  A
C1627      C1632   1.518       .  S
C1628      C1629   1.404       .  A
C1628      H1633   1.083       .  S
C1629      C1630   1.420       .  A
C1630      C1634   1.518       .  S
C1631      C1636   1.417       .  A
C1631      C1640   1.401       .  A
C1632      F1648   1.382       .  S
C1632      F1649   1.382       .  S
C1632      F1650   1.385       .  S
C1634      F1645   1.385       .  S
C1634      F1646   1.380       .  S
C1634      F1647   1.383       .  S
C1636      C1637   1.405       .  A
C1636      C1641   1.519       .  S
C1637      C1638   1.402       .  A
C1637      H1642   1.083       .  S
C1638      C1639   1.419       .  A
C1639      C1640   1.404       .  A
C1639      C1643   1.519       .  S
C1640      H1644   1.085       .  S
C1641      F1654   1.385       .  S
C1641      F1655   1.382       .  S
C1641      F1656   1.382       .  S
C1643      F1651   1.384       .  S
C1643      F1652   1.381       .  S
C1643      F1653   1.383       .  S
C1657      C1658   1.404       .  A
C1657      C1662   1.408       .  A
C1657      H1667   1.083       .  S
C1658      C1659   1.417       .  A
C1658      C1663   1.489       .  S
C1659      C1660   1.409       .  A
C1659      C1664   1.518       .  S
C1660      C1661   1.403       .  A
C1660      H1665   1.083       .  S
C1661      C1662   1.415       .  A
C1662      C1666   1.519       .  S
C1663      C1668   1.417       .  A
C1663      C1672   1.406       .  A
C1664      F1680   1.382       .  S
C1664      F1681   1.382       .  S
C1664      F1682   1.385       .  S
C1666      F1677   1.382       .  S
C1666      F1678   1.384       .  S
C1666      F1679   1.382       .  S
C1668      C1669   1.409       .  A
C1668      C1673   1.521       .  S
C1669      C1670   1.404       .  A
C1669      H1674   1.083       .  S
C1670      C1671   1.413       .  A
C1671      C1672   1.411       .  A
C1671      C1675   1.516       .  S
C1672      H1676   1.083       .  S
C1673      F1686   1.384       .  S
C1673      F1687   1.382       .  S
C1673      F1688   1.382       .  S
C1675      F1683   1.380       .  S
C1675      F1684   1.383       .  S
C1675      F1685   1.384       .  S
C1689      C1690   1.405       .  A
C1689      C1694   1.410       .  A
C1689      H1699   1.083       .  S
C1690      C1691   1.418       .  A
C1690      C1695   1.490       .  S
C1691      C1692   1.407       .  A
C1691      C1696   1.520       .  S
C1692      C1693   1.403       .  A
C1692      H1697   1.083       .  S
C1693      C1694   1.415       .  A
C1694      C1698   1.517       .  S
C1695      C1700   1.418       .  A
C1695      C1704   1.404       .  A
C1696      F1712   1.382       .  S
C1696      F1713   1.382       .  S
C1696      F1714   1.385       .  S
C1698      F1709   1.383       .  S
C1698      F1710   1.385       .  S
C1698      F1711   1.379       .  S
C1700      C1701   1.408       .  A
C1700      C1705   1.519       .  S
C1701      C1702   1.403       .  A
C1701      H1706   1.083       .  S
C1702      C1703   1.415       .  A
C1703      C1704   1.408       .  A
C1703      C1707   1.518       .  S
C1704      H1708   1.083       .  S
C1705      F1718   1.385       .  S
C1705      F1719   1.382       .  S
C1705      F1720   1.382       .  S
C1707      F1715   1.382       .  S
C1707      F1716   1.382       .  S
C1707      F1717   1.385       .  S
C1721      C1722   1.403       .  A
C1721      C1726   1.406       .  A
C1721      H1731   1.083       .  S
C1722      C1723   1.415       .  A
C1722      C1727   1.482       .  S
C1723      C1724   1.406       .  A
C1723      C1728   1.518       .  S
C1724      C1725   1.402       .  A
C1724      H1729   1.083       .  S
C1725      C1726   1.415       .  A
C1726      C1730   1.518       .  S
C1727      C1732   1.417       .  A
C1727      C1736   1.399       .  A
C1728      F1744   1.382       .  S
C1728      F1745   1.381       .  S
C1728      F1746   1.384       .  S
C1730      F1741   1.385       .  S
C1730      F1742   1.382       .  S
C1730      F1743   1.382       .  S
C1732      C1733   1.408       .  A
C1732      C1737   1.520       .  S
C1733      C1734   1.405       .  A
C1733      H1738   1.083       .  S
C1734      C1735   1.420       .  A
C1735      C1736   1.405       .  A
C1735      C1739   1.520       .  S
C1736      H1740   1.083       .  S
C1737      F1750   1.385       .  S
C1737      F1751   1.382       .  S
C1737      F1752   1.381       .  S
C1739      F1747   1.385       .  S
C1739      F1748   1.384       .  S
C1739      F1749   1.382       .  S
C1753      C1754   1.397       .  A
C1753      C1758   1.405       .  A
C1753      H1763   1.083       .  S
C1754      C1755   1.416       .  A
C1754      C1759   1.486       .  S
C1755      C1756   1.410       .  A
C1755      C1760   1.520       .  S
C1756      C1757   1.410       .  A
C1756      H1761   1.083       .  S
C1757      C1758   1.426       .  A
C1758      C1762   1.520       .  S
C1759      C1764   1.418       .  A
C1759      C1768   1.403       .  A
C1760      F1776   1.382       .  S
C1760      F1777   1.383       .  S
C1760      F1778   1.385       .  S
C1762      F1773   1.384       .  S
C1762      F1774   1.384       .  S
C1762      F1775   1.381       .  S
C1764      C1765   1.407       .  A
C1764      C1769   1.520       .  S
C1765      C1766   1.403       .  A
C1765      H1770   1.083       .  S
C1766      C1767   1.415       .  A
C1767      C1768   1.406       .  A
C1767      C1771   1.518       .  S
C1768      H1772   1.083       .  S
C1769      F1782   1.384       .  S
C1769      F1783   1.382       .  S
C1769      F1784   1.383       .  S
C1771      F1779   1.381       .  S
C1771      F1780   1.383       .  S
C1771      F1781   1.384       .  S
C1785      C1786   1.400       .  A
C1785      C1790   1.407       .  A
C1785      H1795   1.083       .  S
C1786      C1787   1.417       .  A
C1786      C1791   1.486       .  S
C1787      C1788   1.409       .  A
C1787      C1792   1.520       .  S
C1788      C1789   1.404       .  A
C1788      H1793   1.083       .  S
C1789      C1790   1.420       .  A
C1790      C1794   1.520       .  S
C1791      C1796   1.415       .  A
C1791      C1800   1.401       .  A
C1792      F1808   1.382       .  S
C1792      F1809   1.382       .  S
C1792      F1810   1.385       .  S
C1794      F1805   1.381       .  S
C1794      F1806   1.385       .  S
C1794      F1807   1.383       .  S
C1796      C1797   1.408       .  A
C1796      C1801   1.519       .  S
C1797      C1798   1.404       .  A
C1797      H1802   1.083       .  S
C1798      C1799   1.422       .  A
C1799      C1800   1.409       .  A
C1799      C1803   1.518       .  S
C1800      H1804   1.083       .  S
C1801      F1814   1.384       .  S
C1801      F1815   1.382       .  S
C1801      F1816   1.382       .  S
C1803      F1811   1.379       .  S
C1803      F1812   1.383       .  S
C1803      F1813   1.385       .  S
C1817      C1818   1.402       .  A
C1817      C1822   1.407       .  A
C1817      H1827   1.084       .  S
C1818      C1819   1.418       .  A
C1818      C1823   1.491       .  S
C1819      C1820   1.411       .  A
C1819      C1824   1.519       .  S
C1820      C1821   1.405       .  A
C1820      H1825   1.083       .  S
C1821      C1822   1.419       .  A
C1822      C1826   1.519       .  S
C1823      C1828   1.413       .  A
C1823      C1832   1.400       .  A
C1824      F1840   1.382       .  S
C1824      F1841   1.381       .  S
C1824      F1842   1.385       .  S
C1826      F1837   1.384       .  S
C1826      F1838   1.382       .  S
C1826      F1839   1.381       .  S
C1828      C1829   1.409       .  A
C1828      C1833   1.520       .  S
C1829      C1830   1.412       .  A
C1829      H1834   1.082       .  S
C1830      C1831   1.432       .  A
C1831      C1832   1.413       .  A
C1831      C1835   1.523       .  S
C1832      H1836   1.083       .  S
C1833      F1846   1.385       .  S
C1833      F1847   1.382       .  S
C1833      F1848   1.382       .  S
C1835      F1843   1.383       .  S
C1835      F1844   1.383       .  S
C1835      F1845   1.385       .  S
C1849      C1850   1.400       .  A
C1849      C1854   1.409       .  A
C1849      H1859   1.083       .  S
C1850      C1851   1.415       .  A
C1850      C1855   1.488       .  S
C1851      C1852   1.407       .  A
C1851      C1856   1.520       .  S
C1852      C1853   1.407       .  A
C1852      H1857   1.081       .  S
C1853      C1854   1.426       .  A
C1854      C1858   1.519       .  S
C1855      C1860   1.416       .  A
C1855      C1864   1.403       .  A
C1856      F1872   1.381       .  S
C1856      F1873   1.382       .  S
C1856      F1874   1.384       .  S
C1858      F1869   1.384       .  S
C1858      F1870   1.385       .  S
C1858      F1871   1.380       .  S
C1860      C1861   1.409       .  A
C1860      C1865   1.519       .  S
C1861      C1862   1.405       .  A
C1861      H1866   1.083       .  S
C1862      C1863   1.417       .  A
C1863      C1864   1.407       .  A
C1863      C1867   1.519       .  S
C1864      H1868   1.083       .  S
C1865      F1878   1.384       .  S
C1865      F1879   1.382       .  S
C1865      F1880   1.383       .  S
C1867      F1875   1.381       .  S
C1867      F1876   1.383       .  S
C1867      F1877   1.385       .  S
C1881      C1882   1.405       .  A
C1881      C1886   1.412       .  A
C1881      H1891   1.083       .  S
C1882      C1883   1.416       .  A
C1882      C1887   1.490       .  S
C1883      C1884   1.407       .  A
C1883      C1888   1.519       .  S
C1884      C1885   1.402       .  A
C1884      H1889   1.083       .  S
C1885      C1886   1.416       .  A
C1886      C1890   1.515       .  S
C1887      C1892   1.417       .  A
C1887      C1896   1.404       .  A
C1888      F1904   1.382       .  S
C1888      F1905   1.381       .  S
C1888      F1906   1.385       .  S
C1890      F1901   1.385       .  S
C1890      F1902   1.381       .  S
C1890      F1903   1.383       .  S
C1892      C1893   1.409       .  A
C1892      C1897   1.519       .  S
C1893      C1894   1.403       .  A
C1893      H1898   1.083       .  S
C1894      C1895   1.416       .  A
C1895      C1896   1.410       .  A
C1895      C1899   1.518       .  S
C1896      H1900   1.083       .  S
C1897      F1910   1.385       .  S
C1897      F1911   1.383       .  S
C1897      F1912   1.381       .  S
C1899      F1907   1.385       .  S
C1899      F1908   1.383       .  S
C1899      F1909   1.382       .  S
C1913      C1914   1.401       .  A
C1913      C1918   1.409       .  A
C1913      H1923   1.083       .  S
C1914      C1915   1.420       .  A
C1914      C1919   1.494       .  S
C1915      C1916   1.414       .  A
C1915      C1920   1.518       .  S
C1916      C1917   1.403       .  A
C1916      H1921   1.083       .  S
C1917      C1918   1.419       .  A
C1918      C1922   1.519       .  S
C1919      C1924   1.418       .  A
C1919      C1928   1.404       .  A
C1920      F1936   1.382       .  S
C1920      F1937   1.382       .  S
C1920      F1938   1.384       .  S
C1922      F1933   1.385       .  S
C1922      F1934   1.383       .  S
C1922      F1935   1.383       .  S
C1924      C1925   1.409       .  A
C1924      C1929   1.518       .  S
C1925      C1926   1.403       .  A
C1925      H1930   1.083       .  S
C1926      C1927   1.420       .  A
C1927      C1928   1.409       .  A
C1927      C1931   1.520       .  S
C1928      H1932   1.084       .  S
C1929      F1942   1.385       .  S
C1929      F1943   1.382       .  S
C1929      F1944   1.383       .  S
C1931      F1939   1.383       .  S
C1931      F1940   1.381       .  S
C1931      F1941   1.383       .  S
C1945      C1946   1.402       .  A
C1945      C1950   1.408       .  A
C1945      H1955   1.083       .  S
C1946      C1947   1.416       .  A
C1946      C1951   1.484       .  S
C1947      C1948   1.406       .  A
C1947      C1952   1.519       .  S
C1948      C1949   1.403       .  A
C1948      H1953   1.083       .  S
C1949      C1950   1.417       .  A
C1950      C1954   1.517       .  S
C1951      C1956   1.416       .  A
C1951      C1960   1.400       .  A
C1952      F1968   1.383       .  S
C1952      F1969   1.382       .  S
C1952      F1970   1.385       .  S
C1954      F1965   1.381       .  S
C1954      F1966   1.385       .  S
C1954      F1967   1.383       .  S
C1956      C1957   1.409       .  A
C1956      C1961   1.518       .  S
C1957      C1958   1.404       .  A
C1957      H1962   1.083       .  S
C1958      C1959   1.421       .  A
C1959      C1960   1.406       .  A
C1959      C1963   1.520       .  S
C1960      H1964   1.083       .  S
C1961      F1974   1.385       .  S
C1961      F1975   1.383       .  S
C1961      F1976   1.382       .  S
C1963      F1971   1.383       .  S
C1963      F1972   1.384       .  S
C1963      F1973   1.384       .  S
C1977      C1978   1.403       .  A
C1977      C1982   1.408       .  A
C1977      H1987   1.083       .  S
C1978      C1979   1.415       .  A
C1978      C1983   1.482       .  S
C1979      C1980   1.404       .  A
C1979      C1984   1.520       .  S
C1980      C1981   1.403       .  A
C1980      H1985   1.083       .  S
C1981      C1982   1.417       .  A
C1982      C1986   1.518       .  S
C1983      C1988   1.416       .  A
C1983      C1992   1.402       .  A
C1984      F2000   1.382       .  S
C1984      F2001   1.382       .  S
C1984      F2002   1.385       .  S
C1986      F1997   1.382       .  S
C1986      F1998   1.385       .  S
C1986      F1999   1.383       .  S
C1988      C1989   1.406       .  A
C1988      C1993   1.520       .  S
C1989      C1990   1.402       .  A
C1989      H1994   1.083       .  S
C1990      C1991   1.416       .  A
C1991      C1992   1.407       .  A
C1991      C1995   1.517       .  S
C1992      H1996   1.083       .  S
C1993      F2006   1.384       .  S
C1993      F2007   1.382       .  S
C1993      F2008   1.382       .  S
C1995      F2003   1.383       .  S
C1995      F2004   1.382       .  S
C1995      F2005   1.385       .  S
C2009      C2010   1.400       .  A
C2009      C2014   1.408       .  A
C2009      H2019   1.083       .  S
C2010      C2011   1.416       .  A
C2010      C2015   1.489       .  S
C2011      C2012   1.408       .  A
C2011      C2016   1.520       .  S
C2012      C2013   1.407       .  A
C2012      H2017   1.083       .  S
C2013      C2014   1.425       .  A
C2014      C2018   1.520       .  S
C2015      C2020   1.416       .  A
C2015      C2024   1.404       .  A
C2016      F2032   1.382       .  S
C2016      F2033   1.382       .  S
C2016      F2034   1.384       .  S
C2018      F2029   1.384       .  S
C2018      F2030   1.384       .  S
C2018      F2031   1.382       .  S
C2020      C2021   1.407       .  A
C2020      C2025   1.518       .  S
C2021      C2022   1.403       .  A
C2021      H2026   1.083       .  S
C2022      C2023   1.416       .  A
C2023      C2024   1.408       .  A
C2023      C2027   1.518       .  S
C2024      H2028   1.083       .  S
C2025      F2038   1.384       .  S
C2025      F2039   1.381       .  S
C2025      F2040   1.382       .  S
C2027      F2035   1.382       .  S
C2027      F2036   1.383       .  S
C2027      F2037   1.385       .  S
C2041      C2042   1.398       .  A
C2041      C2046   1.405       .  A
C2041      H2051   1.083       .  S
C2042      C2043   1.416       .  A
C2042      C2047   1.484       .  S
C2043      C2044   1.410       .  A
C2043      C2048   1.519       .  S
C2044      C2045   1.404       .  A
C2044      H2049   1.083       .  S
C2045      C2046   1.423       .  A
C2046      C2050   1.522       .  S
C2047      C2052   1.417       .  A
C2047      C2056   1.402       .  A
C2048      F2064   1.382       .  S
C2048      F2065   1.382       .  S
C2048      F2066   1.384       .  S
C2050      F2061   1.384       .  S
C2050      F2062   1.385       .  S
C2050      F2063   1.382       .  S
C2052      C2053   1.406       .  A
C2052      C2057   1.520       .  S
C2053      C2054   1.402       .  A
C2053      H2058   1.083       .  S
C2054      C2055   1.416       .  A
C2055      C2056   1.407       .  A
C2055      C2059   1.517       .  S
C2056      H2060   1.083       .  S
C2057      F2070   1.385       .  S
C2057      F2071   1.382       .  S
C2057      F2072   1.382       .  S
C2059      F2067   1.385       .  S
C2059      F2068   1.382       .  S
C2059      F2069   1.383       .  S
C2073      C2074   1.402       .  A
C2073      C2078   1.409       .  A
C2073      H2083   1.083       .  S
C2074      C2075   1.420       .  A
C2074      C2079   1.493       .  S
C2075      C2076   1.412       .  A
C2075      C2080   1.520       .  S
C2076      C2077   1.404       .  A
C2076      H2081   1.083       .  S
C2077      C2078   1.417       .  A
C2078      C2082   1.517       .  S
C2079      C2084   1.415       .  A
C2079      C2088   1.399       .  A
C2080      F2096   1.382       .  S
C2080      F2097   1.382       .  S
C2080      F2098   1.385       .  S
C2082      F2093   1.381       .  S
C2082      F2094   1.384       .  S
C2082      F2095   1.382       .  S
C2084      C2085   1.411       .  A
C2084      C2089   1.519       .  S
C2085      C2086   1.411       .  A
C2085      H2090   1.083       .  S
C2086      C2087   1.427       .  A
C2087      C2088   1.411       .  A
C2087      C2091   1.517       .  S
C2088      H2092   1.083       .  S
C2089      F2102   1.384       .  S
C2089      F2103   1.383       .  S
C2089      F2104   1.382       .  S
C2091      F2099   1.385       .  S
C2091      F2100   1.384       .  S
C2091      F2101   1.383       .  S
C2105      C2106   1.394       .  A
C2105      C2110   1.408       .  A
C2105      H2115   1.083       .  S
C2106      C2107   1.413       .  A
C2106      C2111   1.486       .  S
C2107      C2108   1.411       .  A
C2107      C2112   1.519       .  S
C2108      C2109   1.412       .  A
C2108      H2113   1.082       .  S
C2109      C2110   1.434       .  A
C2110      C2114   1.522       .  S
C2111      C2116   1.417       .  A
C2111      C2120   1.401       .  A
C2112      F2128   1.383       .  S
C2112      F2129   1.382       .  S
C2112      F2130   1.384       .  S
C2114      F2125   1.383       .  S
C2114      F2126   1.384       .  S
C2114      F2127   1.383       .  S
C2116      C2117   1.407       .  A
C2116      C2121   1.519       .  S
C2117      C2118   1.403       .  A
C2117      H2122   1.083       .  S
C2118      C2119   1.420       .  A
C2119      C2120   1.405       .  A
C2119      C2123   1.518       .  S
C2120      H2124   1.084       .  S
C2121      F2134   1.385       .  S
C2121      F2135   1.382       .  S
C2121      F2136   1.382       .  S
C2123      F2131   1.384       .  S
C2123      F2132   1.382       .  S
C2123      F2133   1.383       .  S
C2137      C2138   1.405       .  A
C2137      C2142   1.415       .  A
C2137      H2147   1.082       .  S
C2138      C2139   1.416       .  A
C2138      C2143   1.495       .  S
C2139      C2140   1.404       .  A
C2139      C2144   1.523       .  S
C2140      C2141   1.410       .  A
C2140      H2145   1.081       .  S
C2141      C2142   1.425       .  A
C2142      C2146   1.518       .  S
C2143      C2148   1.418       .  A
C2143      C2152   1.403       .  A
C2144      F2160   1.381       .  S
C2144      F2161   1.383       .  S
C2144      F2162   1.384       .  S
C2146      F2157   1.384       .  S
C2146      F2158   1.385       .  S
C2146      F2159   1.382       .  S
C2148      C2149   1.411       .  A
C2148      C2153   1.518       .  S
C2149      C2150   1.406       .  A
C2149      H2154   1.083       .  S
C2150      C2151   1.418       .  A
C2151      C2152   1.406       .  A
C2151      C2155   1.519       .  S
C2152      H2156   1.084       .  S
C2153      F2166   1.385       .  S
C2153      F2167   1.382       .  S
C2153      F2168   1.383       .  S
C2155      F2163   1.381       .  S
C2155      F2164   1.383       .  S
C2155      F2165   1.386       .  S
C2169      C2170   1.401       .  A
C2169      C2174   1.417       .  A
C2169      H2179   1.083       .  S
C2170      C2171   1.415       .  A
C2170      C2175   1.499       .  S
C2171      C2172   1.410       .  A
C2171      C2176   1.521       .  S
C2172      C2173   1.412       .  A
C2172      H2177   1.081       .  S
C2173      C2174   1.434       .  A
C2174      C2178   1.523       .  S
C2175      C2180   1.420       .  A
C2175      C2184   1.403       .  A
C2176      F2192   1.382       .  S
C2176      F2193   1.382       .  S
C2176      F2194   1.382       .  S
C2178      F2189   1.383       .  S
C2178      F2190   1.385       .  S
C2178      F2191   1.384       .  S
C2180      C2181   1.415       .  A
C2180      C2185   1.518       .  S
C2181      C2182   1.406       .  A
C2181      H2186   1.083       .  S
C2182      C2183   1.418       .  A
C2183      C2184   1.408       .  A
C2183      C2187   1.520       .  S
C2184      H2188   1.083       .  S
C2185      F2198   1.385       .  S
C2185      F2199   1.382       .  S
C2185      F2200   1.383       .  S
C2187      F2195   1.381       .  S
C2187      F2196   1.383       .  S
C2187      F2197   1.384       .  S
C2201      C2202   1.398       .  A
C2201      C2206   1.411       .  A
C2201      H2211   1.083       .  S
C2202      C2203   1.415       .  A
C2202      C2207   1.495       .  S
C2203      C2204   1.414       .  A
C2203      C2208   1.519       .  S
C2204      C2205   1.413       .  A
C2204      H2209   1.082       .  S
C2205      C2206   1.433       .  A
C2206      C2210   1.521       .  S
C2207      C2212   1.419       .  A
C2207      C2216   1.402       .  A
C2208      F2224   1.383       .  S
C2208      F2225   1.381       .  S
C2208      F2226   1.384       .  S
C2210      F2221   1.385       .  S
C2210      F2222   1.384       .  S
C2210      F2223   1.382       .  S
C2212      C2213   1.411       .  A
C2212      C2217   1.519       .  S
C2213      C2214   1.405       .  A
C2213      H2218   1.083       .  S
C2214      C2215   1.422       .  A
C2215      C2216   1.410       .  A
C2215      C2219   1.518       .  S
C2216      H2220   1.084       .  S
C2217      F2230   1.384       .  S
C2217      F2231   1.383       .  S
C2217      F2232   1.381       .  S
C2219      F2227   1.384       .  S
C2219      F2228   1.382       .  S
C2219      F2229   1.382       .  S
C2233      C2234   1.403       .  A
C2233      C2238   1.408       .  A
C2233      H2243   1.083       .  S
C2234      C2235   1.417       .  A
C2234      C2239   1.488       .  S
C2235      C2236   1.407       .  A
C2235      C2240   1.519       .  S
C2236      C2237   1.402       .  A
C2236      H2241   1.083       .  S
C2237      C2238   1.415       .  A
C2238      C2242   1.517       .  S
C2239      C2244   1.417       .  A
C2239      C2248   1.401       .  A
C2240      F2256   1.382       .  S
C2240      F2257   1.382       .  S
C2240      F2258   1.385       .  S
C2242      F2253   1.382       .  S
C2242      F2254   1.385       .  S
C2242      F2255   1.383       .  S
C2244      C2245   1.409       .  A
C2244      C2249   1.518       .  S
C2245      C2246   1.402       .  A
C2245      H2250   1.083       .  S
C2246      C2247   1.420       .  A
C2247      C2248   1.408       .  A
C2247      C2251   1.520       .  S
C2248      H2252   1.083       .  S
C2249      F2262   1.384       .  S
C2249      F2263   1.382       .  S
C2249      F2264   1.382       .  S
C2251      F2259   1.382       .  S
C2251      F2260   1.384       .  S
C2251      F2261   1.385       .  S
C2265      C2266   1.401       .  A
C2265      C2270   1.408       .  A
C2265      H2275   1.083       .  S
C2266      C2267   1.417       .  A
C2266      C2271   1.488       .  S
C2267      C2268   1.410       .  A
C2267      C2272   1.520       .  S
C2268      C2269   1.405       .  A
C2268      H2273   1.083       .  S
C2269      C2270   1.418       .  A
C2270      C2274   1.517       .  S
C2271      C2276   1.417       .  A
C2271      C2280   1.400       .  A
C2272      F2288   1.382       .  S
C2272      F2289   1.383       .  S
C2272      F2290   1.384       .  S
C2274      F2285   1.385       .  S
C2274      F2286   1.381       .  S
C2274      F2287   1.382       .  S
C2276      C2277   1.410       .  A
C2276      C2281   1.518       .  S
C2277      C2278   1.405       .  A
C2277      H2282   1.083       .  S
C2278      C2279   1.422       .  A
C2279      C2280   1.405       .  A
C2279      C2283   1.522       .  S
C2280      H2284   1.083       .  S
C2281      F2294   1.385       .  S
C2281      F2295   1.382       .  S
C2281      F2296   1.382       .  S
C2283      F2291   1.385       .  S
C2283      F2292   1.384       .  S
C2283      F2293   1.382       .  S
C2297      C2298   1.402       .  A
C2297      C2302   1.407       .  A
C2297      H2307   1.085       .  S
C2298      C2299   1.417       .  A
C2298      C2303   1.491       .  S
C2299      C2300   1.410       .  A
C2299      C2304   1.519       .  S
C2300      C2301   1.405       .  A
C2300      H2305   1.083       .  S
C2301      C2302   1.421       .  A
C2302      C2306   1.518       .  S
C2303      C2308   1.415       .  A
C2303      C2312   1.401       .  A
C2304      F2320   1.382       .  S
C2304      F2321   1.382       .  S
C2304      F2322   1.385       .  S
C2306      F2317   1.384       .  S
C2306      F2318   1.383       .  S
C2306      F2319   1.381       .  S
C2308      C2309   1.411       .  A
C2308      C2313   1.520       .  S
C2309      C2310   1.409       .  A
C2309      H2314   1.083       .  S
C2310      C2311   1.423       .  A
C2311      C2312   1.410       .  A
C2311      C2315   1.518       .  S
C2312      H2316   1.083       .  S
C2313      F2326   1.384       .  S
C2313      F2327   1.382       .  S
C2313      F2328   1.382       .  S
C2315      F2323   1.384       .  S
C2315      F2324   1.383       .  S
C2315      F2325   1.379       .  S
