geometry optimzed in LAMMPS
_audit_creation_date              2020-11-30 
_audit_creation_method            'lammps2cif' 
_symmetry_space_group_name_H-M    'P1' 
_symmetry_Int_Tables_number       1 
_symmetry_cell_setting            triclinic 
loop_ 
_symmetry_equiv_pos_as_xyz 
  x,y,z 
_cell_length_a                    34.47312239 
_cell_length_b                    34.46918310463423 
_cell_length_c                    34.46344942815683 
_cell_angle_alpha                 90.02139238711564 
_cell_angle_beta                  89.9938863076529 
_cell_angle_gamma                 90.00833394927996 
loop_ 
_atom_site_label 
_atom_site_type_symbol 
_atom_site_fract_x 
_atom_site_fract_y 
_atom_site_fract_z 
_atom_site_charge 
O1          O  0.46072013  0.63139788  0.96728504    -0.72600
O2          O  0.53908989  0.71024714  0.96739204    -0.72600
O3          O  0.53938937  0.63140470  0.96747094    -0.72700
O4          O  0.46091913  0.71024303  0.96733284    -0.72700
O5          O  0.46085349  0.71022567  0.03214110    -0.72700
O6          O  0.53927697  0.63144954  0.03222871    -0.72600
O7          O  0.53902278  0.71029747  0.03220035    -0.72600
O8          O  0.46060961  0.63139149  0.03204350    -0.72700
Ni9        Ni  0.50003399  0.67073772  0.96505270     1.25400
Ni10       Ni  0.49993734  0.67075661  0.03446997     1.25400
C11         C  0.44774515  0.61847353  0.99962965     0.89600
C12         C  0.55129658  0.72363619  0.99979534     0.89500
C13         C  0.55225774  0.61851127  0.99988326     0.89500
C14         C  0.44863580  0.72358579  0.99974173     0.89700
C15         C  0.82997438  0.71985398  0.00108224     0.88300
C16         C  0.85678141  0.72105812  0.96563757    -0.51900
C17         C  0.88128901  0.75218230  0.96559485     0.11200
C18         C  0.87670345  0.77931628  0.00077624     0.22200
C19         C  0.85711407  0.72114662  0.03625047    -0.52600
C20         C  0.88164192  0.75225660  0.03597350     0.11400
C21         C  0.80908522  0.75884931  0.00113577    -0.52200
C22         C  0.83337976  0.78998850  0.00093309     0.11900
H23         H  0.85685268  0.69906396  0.94304100     0.16400
H24         H  0.89667699  0.80462651  0.00062766     0.02200
H25         H  0.85746857  0.69915491  0.05883162     0.16700
H26         H  0.77767486  0.76161742  0.00114086     0.16500
C27         C  0.68404490  0.86589257  0.99895925     0.88300
C28         C  0.68531390  0.89275947  0.03436358    -0.51900
C29         C  0.71646666  0.91722669  0.03435412     0.11200
C30         C  0.74356426  0.91254844  0.99917045     0.22200
C31         C  0.68534787  0.89297958  0.96375319    -0.52600
C32         C  0.71649164  0.91746632  0.96398389     0.11400
C33         C  0.72301287  0.84494878  0.99891204    -0.52200
C34         C  0.75418063  0.86921046  0.99906376     0.11900
H35         H  0.66333348  0.89290793  0.05696588     0.16400
H36         H  0.76889657  0.93249327  0.99927941     0.02200
H37         H  0.66334217  0.89333037  0.94118212     0.16700
H38         H  0.72574167  0.81353177  0.99894328     0.16500
O39         O  0.59541235  0.57543832  0.96764125    -0.72600
O40         O  0.67411480  0.49692341  0.96780063    -0.72600
O41         O  0.59530296  0.49677438  0.96768598    -0.72700
O42         O  0.67425428  0.57510738  0.96786844    -0.72700
O43         O  0.67406282  0.57508258  0.03267692    -0.72700
O44         O  0.59515456  0.49678208  0.03244649    -0.72600
O45         O  0.67397676  0.49689547  0.03260844    -0.72600
O46         O  0.59522552  0.57544652  0.03239901    -0.72700
Ni47       Ni  0.63469351  0.53606278  0.96543198     1.25400
Ni48       Ni  0.63451535  0.53605512  0.03485017     1.25400
C49         C  0.58240309  0.58836720  0.99997997     0.89600
C50         C  0.68737632  0.48463377  0.00021563     0.89500
C51         C  0.58230819  0.48386735  0.00004185     0.89500
C52         C  0.68752901  0.58732529  0.00032554     0.89700
C53         C  0.68377605  0.20613759  0.00094018     0.88300
C54         C  0.68489489  0.17933613  0.96548180    -0.51900
C55         C  0.71596361  0.15477079  0.96537046     0.11200
C56         C  0.74315533  0.15932253  0.00052169     0.22200
C57         C  0.68505901  0.17898151  0.03609456    -0.52600
C58         C  0.71612702  0.15440890  0.03576448     0.11400
C59         C  0.72280005  0.22697722  0.00095407    -0.52200
C60         C  0.75390466  0.20265021  0.00071317     0.11900
H61         H  0.66285727  0.17928517  0.94293954     0.16400
H62         H  0.76842864  0.13931219  0.00033449     0.02200
H63         H  0.66310669  0.17867219  0.05872309     0.16700
H64         H  0.72561076  0.25838762  0.00104117     0.16500
C65         C  0.82976960  0.35202632  0.99952352     0.88300
C66         C  0.85672533  0.35083658  0.03484712    -0.51900
C67         C  0.88124988  0.31973177  0.03478417     0.11200
C68         C  0.87650833  0.29257934  0.99962035     0.22200
C69         C  0.85677137  0.35074280  0.96423578    -0.52600
C70         C  0.88130514  0.31964027  0.96440072     0.11400
C71         C  0.80888545  0.31302042  0.99955299    -0.52200
C72         C  0.83317458  0.28188198  0.99962492     0.11900
H73         H  0.85691955  0.37286227  0.05741274     0.16400
H74         H  0.89648791  0.26727986  0.99967074     0.02200
H75         H  0.85702233  0.37272864  0.94164714     0.16700
H76         H  0.77747577  0.31024652  0.99960463     0.16500
O77         O  0.53940763  0.44076427  0.96757193    -0.72600
O78         O  0.46102678  0.36195274  0.96724949    -0.72600
O79         O  0.46077500  0.44077536  0.96730634    -0.72700
O80         O  0.53920463  0.36193276  0.96763944    -0.72700
O81         O  0.53889160  0.36200876  0.03244780    -0.72700
O82         O  0.46050750  0.44079992  0.03206720    -0.72600
O83         O  0.46071205  0.36197111  0.03205831    -0.72600
O84         O  0.53914308  0.44083824  0.03233256    -0.72700
Ni85       Ni  0.50011368  0.40143591  0.96512423     1.25400
Ni86       Ni  0.49980371  0.40148763  0.03454471     1.25400
C87         C  0.55218120  0.45372663  0.99998548     0.89600
C88         C  0.44861104  0.34861834  0.99958741     0.89500
C89         C  0.44773413  0.45370698  0.99964250     0.89500
C90         C  0.55130693  0.34862926  0.00011894     0.89700
C91         C  0.17018378  0.35200484  0.99992069     0.88300
C92         C  0.14323354  0.35080612  0.96459410    -0.51900
C93         C  0.11872328  0.31968428  0.96462085     0.11200
C94         C  0.12347175  0.29252486  0.99975778     0.22200
C95         C  0.14318112  0.35069222  0.03520349    -0.52600
C96         C  0.11866377  0.31957172  0.03500449     0.11400
C97         C  0.19108716  0.31301264  0.99985387    -0.52200
C98         C  0.16680914  0.28185640  0.99974950     0.11900
H99         H  0.14303030  0.37284048  0.94205312     0.16400
H100        H  0.10350149  0.26721242  0.99968133     0.02200
H101        H  0.14291888  0.37267065  0.05781537     0.16700
H102        H  0.22249836  0.31026065  0.99981181     0.16500
C103        C  0.31618030  0.20607764  0.99862145     0.88300
C104        C  0.31500153  0.17929114  0.03406658    -0.51900
C105        C  0.28392576  0.15472711  0.03412681     0.11200
C106        C  0.25678510  0.15926635  0.99893429     0.22200
C107        C  0.31494090  0.17891193  0.96345394    -0.52600
C108        C  0.28386504  0.15434051  0.96372559     0.11400
C109        C  0.27716636  0.22692054  0.99855896    -0.52200
C110        C  0.24605237  0.20259825  0.99874375     0.11900
H111        H  0.33700509  0.17925221  0.05664232     0.16400
H112        H  0.23150448  0.13925811  0.99907678     0.02200
H113        H  0.33692611  0.17859729  0.94085713     0.16700
H114        H  0.27436804  0.25833196  0.99848056     0.16500
C115        C  0.17010617  0.71987696  0.99838541     0.88300
C116        C  0.14331566  0.72105295  0.03384233    -0.51900
C117        C  0.11880818  0.75216845  0.03393395     0.11200
C118        C  0.12337629  0.77932105  0.99878582     0.22200
C119        C  0.14295406  0.72117706  0.96322962    -0.52600
C120        C  0.11843062  0.75228227  0.96355762     0.11400
C121        C  0.19099439  0.75888018  0.99837014    -0.52200
C122        C  0.16669434  0.79000903  0.99861918     0.11900
H123        H  0.14325433  0.69904679  0.05641116     0.16400
H124        H  0.10340115  0.80462423  0.99897256     0.02200
H125        H  0.14259720  0.69920361  0.94061474     0.16700
H126        H  0.22240389  0.76166018  0.99834567     0.16500
C127        C  0.31599188  0.86590711  0.00062126     0.88300
C128        C  0.31475577  0.89275488  0.96522088    -0.51900
C129        C  0.28361929  0.91723485  0.96522164     0.11200
C130        C  0.25650488  0.91258731  0.00039465     0.22200
C131        C  0.31469301  0.89301357  0.03583279    -0.52600
C132        C  0.28356585  0.91751280  0.03559416     0.11400
C133        C  0.27701133  0.84498067  0.00064863    -0.52200
C134        C  0.24586165  0.86925389  0.00049002     0.11900
H135        H  0.33674206  0.89287691  0.94262425     0.16400
H136        H  0.23118487  0.93254031  0.00027961     0.02200
H137        H  0.33668714  0.89336460  0.05841542     0.16700
H138        H  0.27426131  0.81356510  0.00061471     0.16500
O139        O  0.40457013  0.57545219  0.03187810    -0.72600
O140        O  0.32579142  0.49700195  0.03174500    -0.72600
O141        O  0.40460688  0.49679474  0.03189630    -0.72700
O142        O  0.32573679  0.57517930  0.03161460    -0.72700
O143        O  0.32595571  0.57505377  0.96680524    -0.72700
O144        O  0.40478632  0.49670928  0.96713544    -0.72600
O145        O  0.32596276  0.49687415  0.96693673    -0.72600
O146        O  0.40478449  0.57536846  0.96711947    -0.72700
Ni147      Ni  0.36525292  0.53611127  0.03410110     1.25400
Ni148      Ni  0.36546319  0.53599976  0.96468158     1.25400
C149        C  0.41759891  0.58832960  0.99953574     0.89600
C150        C  0.31253071  0.48467780  0.99933261     0.89500
C151        C  0.41761155  0.48384064  0.99955537     0.89500
C152        C  0.31248957  0.58735403  0.99914132     0.89700
O153        O  0.53944269  0.00197800  0.59502130    -0.72600
O154        O  0.46100274  0.00183222  0.67382877    -0.72600
O155        O  0.46076614  0.00193989  0.59497291    -0.72700
O156        O  0.53919822  0.00200378  0.67388533    -0.72700
O157        O  0.53905761  0.06680104  0.67388240    -0.72700
O158        O  0.46070757  0.06668814  0.59505067    -0.72600
O159        O  0.46089115  0.06663022  0.67388233    -0.72600
O160        O  0.53935117  0.06672701  0.59505813    -0.72700
Ni161      Ni  0.50010557  0.99961614  0.63434194     1.25400
Ni162      Ni  0.49999968  0.06902322  0.63438645     1.25400
C163        C  0.55232310  0.03436883  0.58212881     0.89600
C164        C  0.44868194  0.03419842  0.68719643     0.89500
C165        C  0.44781636  0.03432192  0.58209384     0.89500
C166        C  0.55138095  0.03444651  0.68723649     0.89700
C167        C  0.82981250  0.03475702  0.68392006     0.88300
C168        C  0.85662963  0.07019817  0.68494169    -0.51900
C169        C  0.88116179  0.07040557  0.71604818     0.11200
C170        C  0.87657317  0.03536971  0.74335656     0.22200
C171        C  0.85694381  0.99960107  0.68535377    -0.52600
C172        C  0.88148224  0.00003633  0.71644872     0.11400
C173        C  0.80894302  0.03490530  0.72293831    -0.52200
C174        C  0.83325098  0.03525621  0.75406787     0.11900
H175        H  0.85670708  0.09265941  0.66282618     0.16400
H176        H  0.89656173  0.03563587  0.76865304     0.02200
H177        H  0.85727600  0.97690055  0.66346753     0.16700
H178        H  0.77753516  0.03485830  0.72572554     0.16500
C179        C  0.68387922  0.03663765  0.82973803     0.88300
C180        C  0.68518013  0.00129258  0.85664033    -0.51900
C181        C  0.71624707  0.00143664  0.88120373     0.11200
C182        C  0.74325352  0.03670279  0.87657416     0.22200
C183        C  0.68498114  0.07189617  0.85680387    -0.52600
C184        C  0.71605483  0.07181568  0.88138819     0.11400
C185        C  0.72290922  0.03678116  0.80890500    -0.52200
C186        C  0.75400568  0.03678331  0.83325157     0.11900
H187        H  0.66327847  0.97861571  0.85673213     0.16400
H188        H  0.76852600  0.03670613  0.89659126     0.02200
H189        H  0.66291274  0.09440171  0.85705054     0.16700
H190        H  0.72572954  0.03672035  0.77749099     0.16500
O191        O  0.59533934  0.06685152  0.53917658    -0.72600
O192        O  0.67413478  0.06730674  0.46078362    -0.72600
O193        O  0.59531518  0.06695764  0.46052026    -0.72700
O194        O  0.67415627  0.06705584  0.53897598    -0.72700
O195        O  0.67431766  0.00225864  0.53876814    -0.72700
O196        O  0.59551597  0.00220974  0.46034673    -0.72600
O197        O  0.67436842  0.00251011  0.46055547    -0.72600
O198        O  0.59548383  0.00210263  0.53902211    -0.72700
Ni199      Ni  0.63464814  0.06935633  0.49986925     1.25400
Ni200      Ni  0.63484798  0.99994978  0.49966588     1.25400
C201        C  0.58248419  0.03443062  0.55200892     0.89600
C202        C  0.68760181  0.03500749  0.44841246     0.89500
C203        C  0.58248395  0.03456317  0.44752707     0.89500
C204        C  0.68757613  0.03465184  0.55113775     0.89700
C205        C  0.17002615  0.03699668  0.68359143     0.88300
C206        C  0.14312402  0.00164054  0.68484896    -0.51900
C207        C  0.11859539  0.00171974  0.71595212     0.11200
C208        C  0.12325744  0.03693546  0.74303526     0.22200
C209        C  0.14297503  0.07224365  0.68479638    -0.52600
C210        C  0.11842212  0.07209592  0.71590429     0.11400
C211        C  0.19088900  0.03707327  0.72260885    -0.52200
C212        C  0.16657996  0.03700563  0.75374220     0.11900
H213        H  0.14300700  0.97900464  0.66289440     0.16400
H214        H  0.10326823  0.03688252  0.76833655     0.02200
H215        H  0.14270022  0.09477938  0.66275835     0.16700
H216        H  0.22229731  0.03700332  0.72539428     0.16500
C217        C  0.31593133  0.03461108  0.82948335     0.88300
C218        C  0.31495041  0.07006573  0.85630351    -0.51900
C219        C  0.28385581  0.07029399  0.88085590     0.11200
C220        C  0.25652369  0.03526679  0.87628245     0.22200
C221        C  0.31447228  0.99946936  0.85662740    -0.52600
C222        C  0.28339702  0.99992544  0.88118834     0.11400
C223        C  0.27691973  0.03477002  0.80862375    -0.52200
C224        C  0.24580413  0.03514876  0.83295117     0.11900
H225        H  0.33707992  0.09251854  0.85636736     0.16400
H226        H  0.23123970  0.03555178  0.89628841     0.02200
H227        H  0.33633635  0.97676409  0.85695738     0.16700
H228        H  0.27412637  0.03473016  0.77720753     0.16500
O229        O  0.40476985  0.06682830  0.46038989    -0.72600
O230        O  0.32599824  0.06707535  0.53881032    -0.72600
O231        O  0.40481528  0.06678776  0.53904987    -0.72700
O232        O  0.32594497  0.06696787  0.46062426    -0.72700
O233        O  0.32581511  0.00217078  0.46066470    -0.72700
O234        O  0.40464699  0.00203979  0.53906294    -0.72600
O235        O  0.32579143  0.00227851  0.53887430    -0.72600
O236        O  0.40466019  0.00208002  0.46037895    -0.72700
Ni237      Ni  0.36547098  0.06922698  0.49971852     1.25400
Ni238      Ni  0.36530506  0.99982096  0.49974531     1.25400
C239        C  0.41764089  0.03444261  0.44747012     0.89600
C240        C  0.31254185  0.03474514  0.55109740     0.89500
C241        C  0.41766015  0.03438159  0.55196578     0.89500
C242        C  0.31252459  0.03457647  0.44839473     0.89700
C243        C  0.31618070  0.03685269  0.16980126     0.88300
C244        C  0.31489941  0.00147710  0.14290817    -0.51900
C245        C  0.28379972  0.00153656  0.11838558     0.11200
C246        C  0.25674240  0.03675300  0.12304258     0.22200
C247        C  0.31498351  0.07208063  0.14272319    -0.52600
C248        C  0.28387686  0.07191271  0.11817752     0.11400
C249        C  0.27717665  0.03694209  0.19068581    -0.52200
C250        C  0.24604840  0.03685321  0.16637969     0.11900
H251        H  0.33683855  0.97884305  0.14279060     0.16400
H252        H  0.23144328  0.03668346  0.10305915     0.02200
H253        H  0.33702115  0.09462193  0.14243102     0.16700
H254        H  0.27439532  0.03689328  0.22210391     0.16500
C255        C  0.17016191  0.03468541  0.31574942     0.88300
C256        C  0.14338265  0.07014741  0.31465590    -0.51900
C257        C  0.11888700  0.07031258  0.28351886     0.11200
C258        C  0.12346266  0.03521969  0.25626327     0.22200
C259        C  0.14299265  0.99954879  0.31433034    -0.52600
C260        C  0.11848403  0.99994336  0.28321093     0.11400
C261        C  0.19107049  0.03474363  0.27675015    -0.52200
C262        C  0.16679424  0.03506095  0.24559653     0.11900
H263        H  0.14331509  0.09266064  0.33673471     0.16400
H264        H  0.10350148  0.03545687  0.23094502     0.02200
H265        H  0.14261085  0.97689356  0.33624620     0.16700
H266        H  0.22248160  0.03469801  0.27399152     0.16500
C267        C  0.68423338  0.03478907  0.17003094     0.88300
C268        C  0.68518074  0.07019510  0.14317685    -0.51900
C269        C  0.71625210  0.07039870  0.11859820     0.11200
C270        C  0.74359868  0.03539396  0.12317921     0.22200
C271        C  0.68567620  0.99959909  0.14292234    -0.52600
C272        C  0.71673057  0.00002925  0.11833386     0.11400
C273        C  0.72326167  0.03500452  0.19085565    -0.52200
C274        C  0.75435572  0.03535272  0.16650089     0.11900
H275        H  0.66304834  0.09263860  0.14311509     0.16400
H276        H  0.76886487  0.03565729  0.10315075     0.02200
H277        H  0.66381831  0.97688066  0.14263611     0.16700
H278        H  0.72608086  0.03500701  0.22226917     0.16500
C279        C  0.83005584  0.03714529  0.31584684     0.88300
C280        C  0.85684603  0.00171166  0.31459767    -0.51900
C281        C  0.88139861  0.00170579  0.28351428     0.11200
C282        C  0.87686718  0.03692359  0.25643744     0.22200
C283        C  0.85721668  0.07231425  0.31467226    -0.52600
C284        C  0.88178679  0.07208378  0.28357941     0.11400
C285        C  0.80922157  0.03726690  0.27681416    -0.52200
C286        C  0.83355455  0.03711759  0.24569850     0.11900
H287        H  0.85688020  0.97908941  0.33655025     0.16400
H288        H  0.89687444  0.03680485  0.23115057     0.02200
H289        H  0.85753131  0.09487121  0.33670457     0.16700
H290        H  0.77781576  0.03729066  0.27400703     0.16500
O291        O  0.46070828  0.00210553  0.40437731    -0.72600
O292        O  0.53918658  0.00215314  0.32561465    -0.72600
O293        O  0.53938758  0.00215003  0.40445870    -0.72700
O294        O  0.46099050  0.00225407  0.32550586    -0.72700
O295        O  0.46108668  0.06705048  0.32565645    -0.72700
O296        O  0.53940842  0.06689828  0.40452241    -0.72600
O297        O  0.53925848  0.06695146  0.32569478    -0.72600
O298        O  0.46075780  0.06685380  0.40449102    -0.72700
Ni299      Ni  0.50006524  0.99984434  0.36506909     1.25400
Ni300      Ni  0.50012679  0.06925080  0.36517829     1.25400
C301        C  0.44780374  0.03446234  0.41734481     0.89600
C302        C  0.55149884  0.03454689  0.31232564     0.89500
C303        C  0.55232094  0.03452494  0.41740612     0.89500
C304        C  0.44879196  0.03470514  0.31221940     0.89700
O305        O  0.03204669  0.57546134  0.59521134    -0.72600
O306        O  0.03178475  0.49704202  0.67401684    -0.72600
O307        O  0.03202305  0.49679719  0.59517679    -0.72700
O308        O  0.03169177  0.57522410  0.67405775    -0.72700
O309        O  0.96690039  0.57514326  0.67378104    -0.72700
O310        O  0.96728093  0.49674528  0.59493829    -0.72600
O311        O  0.96699607  0.49695500  0.67379347    -0.72600
O312        O  0.96730738  0.57541434  0.59493624    -0.72700
Ni313      Ni  0.03420244  0.53613172  0.63454155     1.25400
Ni314      Ni  0.96480360  0.53606293  0.63426952     1.25400
C315        C  0.99973409  0.58836160  0.58215574     0.89600
C316        C  0.99936407  0.48474240  0.68725787     0.89500
C317        C  0.99970243  0.48385458  0.58213696     0.89500
C318        C  0.99921888  0.58743891  0.68726720     0.89700
C319        C  0.00090665  0.86602062  0.68383987     0.88300
C320        C  0.96548022  0.89282362  0.68512757    -0.51900
C321        C  0.96548857  0.91732848  0.71626315     0.11200
C322        C  0.00069575  0.91274584  0.74333236     0.22200
C323        C  0.03607039  0.89317183  0.68507358    -0.52600
C324        C  0.03584107  0.91769292  0.71620570     0.11400
C325        C  0.00102242  0.84512378  0.72283756    -0.52200
C326        C  0.00087149  0.86942019  0.75399237     0.11900
H327        H  0.94286448  0.89290776  0.66316563     0.16400
H328        H  0.00058607  0.93271982  0.76865318     0.02200
H329        H  0.05861824  0.89352932  0.66303953     0.16700
H330        H  0.00103131  0.81370989  0.72559381     0.16500
C331        C  0.99862128  0.72008514  0.82963349     0.88300
C332        C  0.03408513  0.72115766  0.85640020    -0.51900
C333        C  0.03424791  0.75224117  0.88096697     0.11200
C334        C  0.99915129  0.77947232  0.87647630     0.22200
C335        C  0.96349644  0.72141977  0.85682106    -0.52600
C336        C  0.96388746  0.75248987  0.88140741     0.11400
C337        C  0.99866130  0.75910836  0.80880344    -0.52200
C338        C  0.99897917  0.79021142  0.83315790     0.11900
H339        H  0.05660755  0.69910470  0.85640490     0.16400
H340        H  0.99939449  0.80475005  0.89650126     0.02200
H341        H  0.94085527  0.69948370  0.85716022     0.16700
H342        H  0.99862233  0.76191906  0.77738883     0.16500
O343        O  0.96754556  0.63144065  0.53901521    -0.72600
O344        O  0.96769787  0.71025847  0.46063781    -0.72600
O345        O  0.96783613  0.63141703  0.46032758    -0.72700
O346        O  0.96755707  0.71029265  0.53882721    -0.72700
O347        O  0.03234700  0.71029127  0.53895121    -0.72700
O348        O  0.03257572  0.63148784  0.46050479    -0.72600
O349        O  0.03248742  0.71034071  0.46075980    -0.72600
O350        O  0.03228480  0.63144668  0.53919275    -0.72700
Ni351      Ni  0.96534314  0.67076610  0.49969589     1.25400
Ni352      Ni  0.03474022  0.67080855  0.49985827     1.25400
C353        C  0.99986806  0.61851767  0.55201963     0.89600
C354        C  0.00009321  0.72366129  0.44845760     0.89500
C355        C  0.00026455  0.61852958  0.44748986     0.89500
C356        C  0.99993786  0.72365173  0.55114057     0.89700
C357        C  0.00149501  0.71994874  0.16986073     0.88300
C358        C  0.96603249  0.72101377  0.14308571    -0.51900
C359        C  0.96586290  0.75210969  0.11855329     0.11200
C360        C  0.00095300  0.77935644  0.12308445     0.22200
C361        C  0.03662301  0.72131700  0.14267934    -0.52600
C362        C  0.03622510  0.75239691  0.11812888     0.11400
C363        C  0.00144081  0.75896576  0.19073421    -0.52200
C364        C  0.00111562  0.79007802  0.16641465     0.11900
H365        H  0.94351333  0.69895134  0.14305593     0.16400
H366        H  0.00070703  0.80464319  0.10308974     0.02200
H367        H  0.05927198  0.69939587  0.14231811     0.16700
H368        H  0.00147203  0.76176634  0.22215136     0.16500
C369        C  0.99896308  0.86596939  0.31578758     0.88300
C370        C  0.03437580  0.89280320  0.31454201    -0.51900
C371        C  0.03439551  0.91728179  0.28340429     0.11200
C372        C  0.99922483  0.91264669  0.25629144     0.22200
C373        C  0.96378392  0.89309033  0.31450601    -0.52600
C374        C  0.96404073  0.91758696  0.28337104     0.11400
C375        C  0.99890969  0.84504070  0.27678998    -0.52200
C376        C  0.99908706  0.86931268  0.24563411     0.11900
H377        H  0.05696923  0.89291740  0.33652685     0.16400
H378        H  0.99935725  0.93259938  0.23096877     0.02200
H379        H  0.94121083  0.89345117  0.33651394     0.16700
H380        H  0.99892409  0.81362513  0.27403408     0.16500
O381        O  0.03290009  0.49677509  0.40458206    -0.72600
O382        O  0.03329072  0.57509098  0.32570964    -0.72600
O383        O  0.03285651  0.57544109  0.40456143    -0.72700
O384        O  0.03320660  0.49690046  0.32572864    -0.72700
O385        O  0.96841753  0.49696095  0.32548781    -0.72700
O386        O  0.96811695  0.57544837  0.40426973    -0.72600
O387        O  0.96850026  0.57514245  0.32541809    -0.72600
O388        O  0.96815831  0.49678748  0.40432521    -0.72700
Ni389      Ni  0.03538141  0.53605262  0.36523880     1.25400
Ni390      Ni  0.96598281  0.53608565  0.36494827     1.25400
C391        C  0.00047943  0.48387420  0.41737574     0.89600
C392        C  0.00097411  0.58735700  0.31220760     0.89500
C393        C  0.00042167  0.58837276  0.41733694     0.89500
C394        C  0.00084269  0.48466072  0.31226136     0.89700
C395        C  0.99878106  0.20621330  0.68363907     0.88300
C396        C  0.03423918  0.17944361  0.68476833    -0.51900
C397        C  0.03434862  0.15488598  0.71584635     0.11200
C398        C  0.99919075  0.15940972  0.74303569     0.22200
C399        C  0.96364524  0.17902658  0.68491533    -0.52600
C400        C  0.96396912  0.15446050  0.71599251     0.11400
C401        C  0.99874231  0.22706033  0.72267381    -0.52200
C402        C  0.99897903  0.20273966  0.75378620     0.11900
H403        H  0.05679028  0.17941529  0.66273513     0.16400
H404        H  0.99937487  0.13940655  0.76831710     0.02200
H405        H  0.94103047  0.17869638  0.66295431     0.16700
H406        H  0.99864648  0.25847137  0.72548637     0.16500
C407        C  0.00015515  0.35214680  0.82969278     0.88300
C408        C  0.96488636  0.35092933  0.85672038    -0.51900
C409        C  0.96498243  0.31981257  0.88122885     0.11200
C410        C  0.00013126  0.29268183  0.87641231     0.22200
C411        C  0.03548044  0.35086625  0.85663355    -0.52600
C412        C  0.03535695  0.31974994  0.88115118     0.11400
C413        C  0.00008718  0.31314340  0.80878247    -0.52200
C414        C  0.00005508  0.28199813  0.83306533     0.11900
H415        H  0.94230979  0.37292569  0.85694487     0.16400
H416        H  0.00011190  0.26737315  0.89638015     0.02200
H417        H  0.05807934  0.37284712  0.85683723     0.16700
H418        H  0.99998814  0.31037624  0.77736288     0.16500
C419        C  0.00145983  0.20627394  0.31563438     0.88300
C420        C  0.96601202  0.17947872  0.31457088    -0.51900
C421        C  0.96587842  0.15487264  0.28351418     0.11200
C422        C  0.00099983  0.15937827  0.25627924     0.22200
C423        C  0.03660279  0.17911290  0.31434262    -0.52600
C424        C  0.03625134  0.15449441  0.28329174     0.11400
C425        C  0.00144238  0.22706127  0.27658653    -0.52200
C426        C  0.00117460  0.20269330  0.24549370     0.11900
H427        H  0.94348789  0.17946743  0.33663182     0.16400
H428        H  0.00079273  0.13933298  0.23101652     0.02200
H429        H  0.05922855  0.17881664  0.33629304     0.16700
H430        H  0.00151088  0.25846846  0.27375254     0.16500
C431        C  0.99987007  0.35205371  0.16975056     0.88300
C432        C  0.03513997  0.35082018  0.14272657    -0.51900
C433        C  0.03500675  0.31971943  0.11817643     0.11200
C434        C  0.99982503  0.29262005  0.12294898     0.22200
C435        C  0.96454631  0.35082628  0.14280573    -0.52600
C436        C  0.96463282  0.31972581  0.11824525     0.11400
C437        C  0.99988792  0.31303747  0.19060630    -0.52200
C438        C  0.99988954  0.28190766  0.16627991     0.11900
H439        H  0.05774516  0.37279428  0.14253565     0.16400
H440        H  0.99981781  0.26732470  0.10294527     0.02200
H441        H  0.94197516  0.37282915  0.14263150     0.16700
H442        H  0.99999938  0.31025203  0.22202233     0.16500
O443        O  0.96793533  0.44079411  0.46022925    -0.72600
O444        O  0.96746036  0.36196647  0.53858389    -0.72600
O445        O  0.96752075  0.44079474  0.53889110    -0.72700
O446        O  0.96800626  0.36197063  0.46037445    -0.69100
O447        O  0.03279608  0.36203286  0.46080011    -0.72700
O448        O  0.03226259  0.44079696  0.53926216    -0.72600
O449        O  0.03224929  0.36196789  0.53900886    -0.72600
O450        O  0.03267692  0.44085124  0.46060353    -0.72700
Ni451      Ni  0.96541319  0.40146049  0.49950655     1.25400
Ni452      Ni  0.03481291  0.40149375  0.49993385     1.25400
C453        C  0.00036430  0.45374380  0.44750820     0.89600
C454        C  0.99976420  0.34862605  0.55105819     0.89500
C455        C  0.99982641  0.45371503  0.55199478     0.89500
C456        C  0.00050154  0.34867617  0.44830335     0.89700
C457        C  0.00163532  0.23366903  0.34821950    -0.16700
C458        C  0.00149975  0.25898830  0.37234970     0.07400
C459        C  0.00112150  0.29035586  0.39866939     0.09200
C460        C  0.00076587  0.31739300  0.42085137    -0.17500
C461        C  0.00071525  0.21854175  0.20684828    -0.11400
C462        C  0.00026592  0.24327454  0.18215157    -0.13000
C463        C  0.99863501  0.23357004  0.65103267    -0.16700
C464        C  0.99879001  0.25887950  0.62690507     0.07400
C465        C  0.99917574  0.29025491  0.60060741     0.09200
C466        C  0.99952240  0.31730965  0.57846010    -0.17500
C467        C  0.99933926  0.21863955  0.79242416    -0.11400
C468        C  0.99971405  0.24337504  0.81713838    -0.13000
C469        C  0.00086499  0.45726022  0.28091415    -0.16700
C470        C  0.00062898  0.43512961  0.25382261     0.07400
C471        C  0.00023905  0.40883407  0.22241809     0.09200
C472        C  0.99997076  0.38468835  0.19710446    -0.17500
C473        C  0.00118328  0.61471036  0.28085898    -0.16700
C474        C  0.00144296  0.63684231  0.25379615     0.07400
C475        C  0.00168936  0.66316293  0.22244882     0.09200
C476        C  0.00172998  0.68732639  0.19718062    -0.17500
C477        C  0.00041149  0.82869632  0.18229673    -0.11400
C478        C  0.99970203  0.85340123  0.20701966    -0.13000
C479        C  0.99893392  0.83869724  0.34846546    -0.16700
C480        C  0.99921295  0.81345315  0.37266039     0.07400
C481        C  0.99969870  0.78210797  0.39899282     0.09200
C482        C  0.00003371  0.75503091  0.42111372    -0.17500
C483        C  0.00092321  0.83872505  0.65116494    -0.16700
C484        C  0.00067547  0.81346456  0.62697026     0.07400
C485        C  0.00024910  0.78210471  0.60063495     0.09200
C486        C  0.99996200  0.75502043  0.57850457    -0.17500
C487        C  0.00031757  0.85353631  0.79260718    -0.11400
C488        C  0.99965159  0.82883540  0.81731708    -0.13000
C489        C  0.99840119  0.68747399  0.80228551    -0.16700
C490        C  0.99846784  0.66330920  0.77700573     0.07400
C491        C  0.99874132  0.63697797  0.74565598     0.09200
C492        C  0.99901193  0.61482540  0.71859863    -0.17500
C493        C  0.99934545  0.45736963  0.71861368    -0.16700
C494        C  0.99954950  0.43525092  0.74570129     0.07400
C495        C  0.99988124  0.40895442  0.77709013     0.09200
C496        C  0.00009991  0.38479988  0.80238030    -0.17500
C497        C  0.91053694  0.97218454  0.27854722    -0.11400
C498        C  0.93500891  0.94722775  0.27850587    -0.13000
C499        C  0.91141899  0.10116302  0.27875386    -0.11400
C500        C  0.93635312  0.12567873  0.27872649    -0.13000
C501        C  0.57893307  0.03451317  0.28103461    -0.16700
C502        C  0.60111670  0.03442651  0.25400318     0.07400
C503        C  0.62746703  0.03438635  0.22266740     0.09200
C504        C  0.65163119  0.03448447  0.19738934    -0.17500
C505        C  0.79298707  0.03601586  0.18234675    -0.11400
C506        C  0.81769763  0.03662499  0.20705985    -0.13000
C507        C  0.08976020  0.09986503  0.27860107    -0.11400
C508        C  0.06526992  0.12481263  0.27848400    -0.13000
C509        C  0.08881649  0.97094335  0.27828406    -0.11400
C510        C  0.06388475  0.94644245  0.27838237    -0.13000
C511        C  0.42142544  0.03490221  0.28085731    -0.16700
C512        C  0.39929168  0.03544861  0.25378474     0.07400
C513        C  0.37297595  0.03623678  0.22241835     0.09200
C514        C  0.34881893  0.03674304  0.19713248    -0.17500
C515        C  0.18271520  0.03569320  0.20698483    -0.11400
C516        C  0.20743395  0.03632313  0.18227682    -0.13000
C517        C  0.28116791  0.03456707  0.42103137    -0.16700
C518        C  0.25408941  0.03446616  0.39890599     0.07400
C519        C  0.22272287  0.03437974  0.37258958     0.09200
C520        C  0.19745346  0.03442942  0.34841531    -0.17500
C521        C  0.06388710  0.12572229  0.72069550    -0.11400
C522        C  0.08882176  0.10121118  0.72070840    -0.13000
C523        C  0.08938962  0.97226802  0.72095498    -0.11400
C524        C  0.06488133  0.94734100  0.72103635    -0.13000
C525        C  0.28118144  0.03497788  0.57846228    -0.16700
C526        C  0.25408374  0.03554777  0.60056315     0.07400
C527        C  0.22267823  0.03635276  0.62682843     0.09200
C528        C  0.19736553  0.03686919  0.65095800    -0.17500
C529        C  0.18246795  0.03647463  0.79236827    -0.11400
C530        C  0.20718416  0.03583005  0.81707539    -0.13000
C531        C  0.80269986  0.03710904  0.34846501    -0.16700
C532        C  0.77739735  0.03665028  0.37260518     0.07400
C533        C  0.74601899  0.03588061  0.39890182     0.09200
C534        C  0.71894564  0.03530357  0.42103097    -0.17500
C535        C  0.93601580  0.94649576  0.72129690    -0.11400
C536        C  0.91111075  0.97101463  0.72139038    -0.13000
C537        C  0.80249868  0.03445905  0.65127654    -0.16700
C538        C  0.77724453  0.03439716  0.62708877     0.07400
C539        C  0.74592068  0.03449282  0.60072613     0.09200
C540        C  0.71888639  0.03461419  0.57854979    -0.17500
C541        C  0.93490271  0.12482691  0.72086492    -0.11400
C542        C  0.91036167  0.09991954  0.72085293    -0.13000
C543        C  0.81736440  0.03584361  0.79269514    -0.11400
C544        C  0.79264065  0.03637886  0.81740077    -0.13000
C545        C  0.65128206  0.03645027  0.80236655    -0.16700
C546        C  0.62715895  0.03592430  0.77705261     0.07400
C547        C  0.60087646  0.03514645  0.74566421     0.09200
C548        C  0.57875445  0.03462064  0.71858535    -0.17500
C549        C  0.34856027  0.03426268  0.80215214    -0.16700
C550        C  0.37274135  0.03409572  0.77688806     0.07400
C551        C  0.39909857  0.03405616  0.74555433     0.09200
C552        C  0.42127202  0.03411386  0.71851230    -0.17500
C553        C  0.27858994  0.94640876  0.93575524    -0.11400
C554        C  0.27846894  0.97092516  0.91084575    -0.13000
C555        C  0.27870371  0.94714307  0.06466020    -0.11400
C556        C  0.27878267  0.97207049  0.08918054    -0.13000
C557        C  0.06521210  0.75726991  0.08843753    -0.11400
C558        C  0.08968857  0.75715394  0.06347775    -0.13000
C559        C  0.06381366  0.75711528  0.91007552    -0.11400
C560        C  0.08877685  0.75715066  0.93454174    -0.13000
C561        C  0.28112988  0.61468929  0.99895118    -0.16700
C562        C  0.25404711  0.63679204  0.99866891     0.07400
C563        C  0.22267920  0.66308235  0.99835661     0.09200
C564        C  0.19740612  0.68723810  0.99823970    -0.17500
C565        C  0.18257143  0.82862200  0.99923711    -0.11400
C566        C  0.20726690  0.85333999  0.99989628    -0.13000
C567        C  0.27905650  0.12553713  0.06364156    -0.11400
C568        C  0.27905811  0.10102015  0.08857247    -0.13000
C569        C  0.27903151  0.12471847  0.93462415    -0.11400
C570        C  0.27906823  0.09981879  0.91006222    -0.13000
C571        C  0.08914802  0.31469047  0.06418534    -0.11400
C572        C  0.06434061  0.31475133  0.08882612    -0.13000
C573        C  0.06463564  0.31483675  0.91056214    -0.11400
C574        C  0.08934132  0.31481829  0.93530250    -0.13000
C575        C  0.19747511  0.38467394  0.99995282    -0.16700
C576        C  0.22274145  0.40885317  0.99980706     0.07400
C577        C  0.25410919  0.43516956  0.99953665     0.09200
C578        C  0.28118702  0.45729759  0.99934896    -0.17500
C579        C  0.20743178  0.21850312  0.99905950    -0.11400
C580        C  0.18273344  0.24323846  0.99940977    -0.13000
C581        C  0.34878088  0.23343761  0.99852600    -0.16700
C582        C  0.37288332  0.25877179  0.99869955     0.07400
C583        C  0.39912858  0.29019052  0.99907875     0.09200
C584        C  0.42123360  0.31728158  0.99939848    -0.17500
C585        C  0.91082956  0.31478881  0.93521619    -0.11400
C586        C  0.93564287  0.31485464  0.91057819    -0.13000
C587        C  0.91063463  0.31486654  0.06409523    -0.11400
C588        C  0.93534639  0.31485876  0.08882957    -0.13000
C589        C  0.72099939  0.12478950  0.06483540    -0.11400
C590        C  0.72100695  0.09989351  0.08938050    -0.13000
C591        C  0.72080879  0.10098957  0.91095753    -0.11400
C592        C  0.72078960  0.12555406  0.93585783    -0.13000
C593        C  0.65118031  0.23349961  0.00109764    -0.16700
C594        C  0.62707108  0.25882347  0.00097112     0.07400
C595        C  0.60080802  0.29022440  0.00063149     0.09200
C596        C  0.57869029  0.31730128  0.00032462    -0.17500
C597        C  0.81725508  0.24325914  0.99996553    -0.11400
C598        C  0.79253550  0.21853935  0.00034376    -0.13000
C599        C  0.80244914  0.38466649  0.99953047    -0.16700
C600        C  0.77715009  0.40880650  0.99970668     0.07400
C601        C  0.74576108  0.43509273  0.00000419     0.09200
C602        C  0.71868954  0.45722335  0.00020309    -0.17500
C603        C  0.72135497  0.94708663  0.93492873    -0.11400
C604        C  0.72127443  0.97200165  0.91041453    -0.13000
C605        C  0.72164522  0.97097966  0.08870376    -0.11400
C606        C  0.72151472  0.94642942  0.06381031    -0.13000
C607        C  0.91042046  0.75719351  0.93606600    -0.11400
C608        C  0.93490122  0.75733295  0.91110892    -0.13000
C609        C  0.80266841  0.68720565  0.00117989    -0.16700
C610        C  0.77738677  0.66304707  0.00104742     0.07400
C611        C  0.74600822  0.63675196  0.00074152     0.09200
C612        C  0.71891407  0.61464961  0.00048016    -0.17500
C613        C  0.91131433  0.75708455  0.06499168    -0.11400
C614        C  0.93628615  0.75700411  0.08945470    -0.13000
C615        C  0.81748333  0.82859187  0.00032103    -0.11400
C616        C  0.79277151  0.85328884  0.99965714    -0.13000
C617        C  0.34865843  0.83862853  0.00065896    -0.16700
C618        C  0.37283579  0.81336946  0.00045161     0.07400
C619        C  0.39915245  0.78201213  0.00007219     0.09200
C620        C  0.42127463  0.75493691  0.99980096    -0.17500
C621        C  0.57864371  0.75500672  0.99974746    -0.16700
C622        C  0.60077815  0.78207795  0.99949343     0.07400
C623        C  0.62713436  0.81340910  0.99913126     0.09200
C624        C  0.65135052  0.83863768  0.99892890    -0.17500
loop_ 
_geom_bond_atom_site_label_1 
_geom_bond_atom_site_label_2 
_geom_bond_distance 
_geom_bond_site_symmetry_2 
_ccdc_geom_bond_type 
O1           Ni9   1.919       .  S
O1           C11   1.281       .  A
O2           Ni9   1.917       .  S
O2           C12   1.279       .  A
O3           Ni9   1.920       .  S
O3           C13   1.282       .  A
O4           Ni9   1.918       .  S
O4           C14   1.280       .  A
O5          Ni10   1.917       .  S
O5           C14   1.279   1_554  A
O6          Ni10   1.919       .  S
O6           C13   1.281   1_554  A
O7          Ni10   1.918       .  S
O7           C12   1.280   1_554  A
O8          Ni10   1.920       .  S
O8           C11   1.282   1_554  A
Ni9         Ni10   2.392   1_556  S
C11         C149   1.469       .  S
C12         C621   1.434       .  S
C13          C49   1.470       .  S
C14         C620   1.434       .  S
C15          C16   1.532   1_554  S
C15          C21   1.525       .  S
C15          C19   1.532       .  S
C15         C609   1.467       .  S
C16          H23   1.087       .  S
C16          C17   1.365       .  D
C17          C18   1.539   1_556  S
C17         C607   1.440       .  S
C18          C22   1.538       .  S
C18          C20   1.540       .  S
C18          H24   1.111       .  S
C19          H25   1.087       .  S
C19          C20   1.366       .  D
C20         C613   1.440       .  S
C21          H26   1.087       .  S
C21          C22   1.361       .  D
C22         C615   1.439       .  S
C27          C28   1.532   1_556  S
C27          C33   1.525       .  S
C27          C31   1.532       .  S
C27         C624   1.467       .  S
C28          H35   1.087       .  S
C28          C29   1.365       .  D
C29          C30   1.539   1_554  S
C29         C606   1.440       .  S
C30          C34   1.538       .  S
C30          C32   1.540       .  S
C30          H36   1.111       .  S
C31          H37   1.087       .  S
C31          C32   1.366       .  D
C32         C603   1.440       .  S
C33          H38   1.087       .  S
C33          C34   1.361       .  D
C34         C616   1.439       .  S
O39         Ni47   1.919       .  S
O39          C49   1.281       .  A
O40         Ni47   1.917       .  S
O40          C50   1.279   1_556  A
O41         Ni47   1.919       .  S
O41          C51   1.282   1_556  A
O42         Ni47   1.918       .  S
O42          C52   1.280   1_556  A
O43         Ni48   1.917       .  S
O43          C52   1.279       .  A
O44         Ni48   1.918       .  S
O44          C51   1.281       .  A
O45         Ni48   1.918       .  S
O45          C50   1.280       .  A
O46         Ni48   1.920       .  S
O46          C49   1.282   1_554  A
Ni47        Ni48   2.392   1_556  S
C50         C602   1.435       .  S
C51          C87   1.469   1_554  S
C52         C612   1.434       .  S
C53          C54   1.532   1_554  S
C53          C59   1.525       .  S
C53          C57   1.532       .  S
C53         C593   1.467       .  S
C54          H61   1.087       .  S
C54          C55   1.365       .  D
C55          C56   1.540   1_556  S
C55         C592   1.441       .  S
C56          C60   1.539       .  S
C56          C58   1.540       .  S
C56          H62   1.111       .  S
C57          H63   1.087       .  S
C57          C58   1.366       .  D
C58         C589   1.441       .  S
C59          H64   1.087       .  S
C59          C60   1.361       .  D
C60         C598   1.440       .  S
C65          C66   1.532   1_556  S
C65          C71   1.525       .  S
C65          C69   1.532       .  S
C65         C599   1.467       .  S
C66          H73   1.087       .  S
C66          C67   1.365       .  D
C67          C68   1.540   1_554  S
C67         C587   1.441       .  S
C68          C72   1.539       .  S
C68          C70   1.540       .  S
C68          H74   1.111       .  S
C69          H75   1.087       .  S
C69          C70   1.366       .  D
C70         C585   1.441       .  S
C71          H76   1.087       .  S
C71          C72   1.361       .  D
C72         C597   1.440       .  S
O77         Ni85   1.918       .  S
O77          C87   1.281       .  A
O78         Ni85   1.916       .  S
O78          C88   1.279       .  A
O79         Ni85   1.919       .  S
O79          C89   1.282       .  A
O80         Ni85   1.918       .  S
O80          C90   1.280   1_556  A
O81         Ni86   1.917       .  S
O81          C90   1.279       .  A
O82         Ni86   1.918       .  S
O82          C89   1.281   1_554  A
O83         Ni86   1.918       .  S
O83          C88   1.280   1_554  A
O84         Ni86   1.919       .  S
O84          C87   1.282   1_554  A
Ni85        Ni86   2.392   1_556  S
C88         C584   1.434       .  S
C89         C151   1.469       .  S
C90         C596   1.434       .  S
C91          C92   1.532       .  S
C91          C97   1.525       .  S
C91          C95   1.532   1_556  S
C91         C575   1.467       .  S
C92          H99   1.087       .  S
C92          C93   1.365       .  D
C93          C94   1.540       .  S
C93         C574   1.441       .  S
C94          C98   1.539       .  S
C94          C96   1.540   1_556  S
C94         H100   1.111       .  S
C95         H101   1.087       .  S
C95          C96   1.366       .  D
C96         C571   1.440       .  S
C97         H102   1.087       .  S
C97          C98   1.361       .  D
C98         C580   1.440       .  S
C103        C104   1.532   1_556  S
C103        C109   1.525       .  S
C103        C107   1.532       .  S
C103        C581   1.467       .  S
C104        H111   1.087       .  S
C104        C105   1.365       .  D
C105        C106   1.540   1_554  S
C105        C567   1.441       .  S
C106        C110   1.539       .  S
C106        C108   1.540       .  S
C106        H112   1.111       .  S
C107        H113   1.087       .  S
C107        C108   1.366       .  D
C108        C569   1.441       .  S
C109        H114   1.087       .  S
C109        C110   1.361       .  D
C110        C579   1.440       .  S
C115        C116   1.532   1_556  S
C115        C121   1.525       .  S
C115        C119   1.532       .  S
C115        C564   1.467       .  S
C116        H123   1.087       .  S
C116        C117   1.365       .  D
C117        C118   1.539   1_554  S
C117        C558   1.440       .  S
C118        C122   1.538       .  S
C118        C120   1.540       .  S
C118        H124   1.111       .  S
C119        H125   1.087       .  S
C119        C120   1.366       .  D
C120        C560   1.440       .  S
C121        H126   1.087       .  S
C121        C122   1.361       .  D
C122        C565   1.439       .  S
C127        C128   1.532   1_554  S
C127        C133   1.525       .  S
C127        C131   1.532       .  S
C127        C617   1.467       .  S
C128        H135   1.087       .  S
C128        C129   1.365       .  D
C129        C130   1.539   1_556  S
C129        C553   1.440       .  S
C130        C134   1.538       .  S
C130        C132   1.540       .  S
C130        H136   1.111       .  S
C131        H137   1.087       .  S
C131        C132   1.366       .  D
C132        C555   1.440       .  S
C133        H138   1.087       .  S
C133        C134   1.361       .  D
C134        C566   1.439   1_554  S
O139       Ni147   1.919       .  S
O139        C149   1.281   1_554  A
O140       Ni147   1.917       .  S
O140        C150   1.279   1_554  A
O141       Ni147   1.919       .  S
O141        C151   1.281   1_554  A
O142       Ni147   1.918       .  S
O142        C152   1.280   1_554  A
O143       Ni148   1.916       .  S
O143        C152   1.279       .  A
O144       Ni148   1.918       .  S
O144        C151   1.281       .  A
O145       Ni148   1.918       .  S
O145        C150   1.280       .  A
O146       Ni148   1.920       .  S
O146        C149   1.282       .  A
Ni147      Ni148   2.392   1_554  S
C150        C578   1.435       .  S
C152        C561   1.434       .  S
O153       Ni161   1.919   1_545  S
O153        C163   1.281       .  A
O154       Ni161   1.917   1_545  S
O154        C164   1.279       .  A
O155       Ni161   1.920   1_545  S
O155        C165   1.282       .  A
O156       Ni161   1.918   1_545  S
O156        C166   1.280       .  A
O157       Ni162   1.916       .  S
O157        C166   1.279       .  A
O158       Ni162   1.918       .  S
O158        C165   1.281       .  A
O159       Ni162   1.918       .  S
O159        C164   1.280       .  A
O160       Ni162   1.919       .  S
O160        C163   1.282       .  A
Ni161      Ni162   2.392   1_565  S
C163        C201   1.469       .  S
C164        C552   1.434       .  S
C165        C241   1.469       .  S
C166        C548   1.435       .  S
C167        C168   1.532       .  S
C167        C173   1.525       .  S
C167        C171   1.532   1_545  S
C167        C537   1.467       .  S
C168        H175   1.087       .  S
C168        C169   1.366       .  D
C169        C170   1.539       .  S
C169        C542   1.441       .  S
C170        C174   1.538       .  S
C170        C172   1.540       .  S
C170        H176   1.111       .  S
C171        H177   1.087       .  S
C171        C172   1.365   1_565  D
C172        C536   1.440   1_545  S
C173        H178   1.087       .  S
C173        C174   1.361       .  D
C174        C543   1.440       .  S
C179        C180   1.532       .  S
C179        C185   1.525       .  S
C179        C183   1.532       .  S
C179        C545   1.467       .  S
C180        H187   1.087   1_545  S
C180        C181   1.365       .  D
C181        C182   1.539       .  S
C181        C604   1.440   1_545  S
C182        C186   1.538       .  S
C182        C184   1.540       .  S
C182        H188   1.111       .  S
C183        H189   1.087       .  S
C183        C184   1.366       .  D
C184        C591   1.441       .  S
C185        H190   1.087       .  S
C185        C186   1.361       .  D
C186        C544   1.440       .  S
O191       Ni199   1.918       .  S
O191        C201   1.281       .  A
O192       Ni199   1.916       .  S
O192        C202   1.279       .  A
O193       Ni199   1.920       .  S
O193        C203   1.282       .  A
O194       Ni199   1.918       .  S
O194        C204   1.280       .  A
O195       Ni200   1.917   1_545  S
O195        C204   1.279       .  A
O196       Ni200   1.919   1_545  S
O196        C203   1.281       .  A
O197       Ni200   1.918   1_545  S
O197        C202   1.280       .  A
O198       Ni200   1.920   1_545  S
O198        C201   1.282       .  A
Ni199      Ni200   2.392   1_545  S
C202        C534   1.435       .  S
C203        C303   1.469       .  S
C204        C540   1.434       .  S
C205        C206   1.532       .  S
C205        C211   1.525       .  S
C205        C209   1.532       .  S
C205        C528   1.467       .  S
C206        H213   1.087   1_545  S
C206        C207   1.365       .  D
C207        C208   1.539       .  S
C207        C523   1.440   1_545  S
C208        C212   1.538       .  S
C208        C210   1.540       .  S
C208        H214   1.111       .  S
C209        H215   1.087       .  S
C209        C210   1.366       .  D
C210        C522   1.441       .  S
C211        H216   1.087       .  S
C211        C212   1.361       .  D
C212        C529   1.440       .  S
C217        C218   1.532       .  S
C217        C223   1.525       .  S
C217        C221   1.532   1_545  S
C217        C549   1.467       .  S
C218        H225   1.087       .  S
C218        C219   1.366       .  D
C219        C220   1.539       .  S
C219        C570   1.441       .  S
C220        C224   1.538       .  S
C220        C222   1.540   1_545  S
C220        H226   1.111       .  S
C221        H227   1.087       .  S
C221        C222   1.365       .  D
C222        C554   1.440       .  S
C223        H228   1.087       .  S
C223        C224   1.361       .  D
C224        C530   1.440       .  S
O229       Ni237   1.918       .  S
O229        C239   1.281       .  A
O230       Ni237   1.916       .  S
O230        C240   1.279       .  A
O231       Ni237   1.920       .  S
O231        C241   1.282       .  A
O232       Ni237   1.918       .  S
O232        C242   1.280       .  A
O233       Ni238   1.917   1_545  S
O233        C242   1.279       .  A
O234       Ni238   1.919   1_545  S
O234        C241   1.281       .  A
O235       Ni238   1.919   1_545  S
O235        C240   1.280       .  A
O236       Ni238   1.920   1_545  S
O236        C239   1.282       .  A
Ni237      Ni238   2.392   1_545  S
C239        C301   1.469       .  S
C240        C525   1.435       .  S
C242        C517   1.435       .  S
C243        C244   1.532       .  S
C243        C249   1.525       .  S
C243        C247   1.532       .  S
C243        C514   1.467       .  S
C244        H251   1.087   1_545  S
C244        C245   1.365       .  D
C245        C246   1.539       .  S
C245        C556   1.440   1_545  S
C246        C250   1.538       .  S
C246        C248   1.540       .  S
C246        H252   1.111       .  S
C247        H253   1.087       .  S
C247        C248   1.366       .  D
C248        C568   1.441       .  S
C249        H254   1.087       .  S
C249        C250   1.361       .  D
C250        C516   1.440       .  S
C255        C256   1.532       .  S
C255        C261   1.525       .  S
C255        C259   1.532   1_545  S
C255        C520   1.467       .  S
C256        H263   1.087       .  S
C256        C257   1.366       .  D
C257        C258   1.539       .  S
C257        C507   1.440       .  S
C258        C262   1.538       .  S
C258        C260   1.540   1_545  S
C258        H264   1.111       .  S
C259        H265   1.087       .  S
C259        C260   1.365       .  D
C260        C509   1.440       .  S
C261        H266   1.087       .  S
C261        C262   1.361       .  D
C262        C515   1.440       .  S
C267        C268   1.532       .  S
C267        C273   1.525       .  S
C267        C271   1.532   1_545  S
C267        C504   1.467       .  S
C268        H275   1.087       .  S
C268        C269   1.366       .  D
C269        C270   1.539       .  S
C269        C590   1.441       .  S
C270        C274   1.538       .  S
C270        C272   1.540       .  S
C270        H276   1.111       .  S
C271        H277   1.087       .  S
C271        C272   1.365   1_565  D
C272        C605   1.440   1_545  S
C273        H278   1.087       .  S
C273        C274   1.361       .  D
C274        C505   1.440       .  S
C279        C280   1.532       .  S
C279        C285   1.525       .  S
C279        C283   1.532       .  S
C279        C531   1.467       .  S
C280        H287   1.087   1_545  S
C280        C281   1.365       .  D
C281        C282   1.539       .  S
C281        C497   1.440   1_545  S
C282        C286   1.538       .  S
C282        C284   1.540       .  S
C282        H288   1.111       .  S
C283        H289   1.087       .  S
C283        C284   1.366       .  D
C284        C499   1.441       .  S
C285        H290   1.087       .  S
C285        C286   1.361       .  D
C286        C506   1.440       .  S
O291       Ni299   1.919   1_545  S
O291        C301   1.281       .  A
O292       Ni299   1.917   1_545  S
O292        C302   1.279       .  A
O293       Ni299   1.920   1_545  S
O293        C303   1.282       .  A
O294       Ni299   1.919   1_545  S
O294        C304   1.280       .  A
O295       Ni300   1.916       .  S
O295        C304   1.279       .  A
O296       Ni300   1.918       .  S
O296        C303   1.281       .  A
O297       Ni300   1.918       .  S
O297        C302   1.280       .  A
O298       Ni300   1.919       .  S
O298        C301   1.282       .  A
Ni299      Ni300   2.392   1_565  S
C302        C501   1.434       .  S
C304        C511   1.435       .  S
O305       Ni313   1.919       .  S
O305        C315   1.281   1_455  A
O306       Ni313   1.917       .  S
O306        C316   1.279   1_455  A
O307       Ni313   1.919       .  S
O307        C317   1.281   1_455  A
O308       Ni313   1.917       .  S
O308        C318   1.280   1_455  A
O309       Ni314   1.916       .  S
O309        C318   1.279       .  A
O310       Ni314   1.918       .  S
O310        C317   1.281       .  A
O311       Ni314   1.918       .  S
O311        C316   1.280       .  A
O312       Ni314   1.920       .  S
O312        C315   1.282       .  A
Ni313      Ni314   2.392   1_455  S
C315        C353   1.470       .  S
C316        C493   1.435       .  S
C317        C455   1.469       .  S
C318        C492   1.434       .  S
C319        C320   1.532   1_455  S
C319        C325   1.525       .  S
C319        C323   1.532       .  S
C319        C483   1.467       .  S
C320        H327   1.087       .  S
C320        C321   1.365       .  D
C321        C322   1.539   1_655  S
C321        C535   1.440       .  S
C322        C326   1.538       .  S
C322        C324   1.540       .  S
C322        H328   1.111       .  S
C323        H329   1.087       .  S
C323        C324   1.366       .  D
C324        C524   1.440       .  S
C325        H330   1.087       .  S
C325        C326   1.361       .  D
C326        C487   1.439       .  S
C331        C332   1.532   1_655  S
C331        C337   1.525       .  S
C331        C335   1.532       .  S
C331        C489   1.467       .  S
C332        H339   1.087       .  S
C332        C333   1.365       .  D
C333        C334   1.539   1_455  S
C333        C559   1.440       .  S
C334        C338   1.538       .  S
C334        C336   1.540       .  S
C334        H340   1.111       .  S
C335        H341   1.087       .  S
C335        C336   1.365       .  D
C336        C608   1.440       .  S
C337        H342   1.087       .  S
C337        C338   1.361       .  D
C338        C488   1.439       .  S
O343       Ni351   1.919       .  S
O343        C353   1.281       .  A
O344       Ni351   1.916       .  S
O344        C354   1.279   1_655  A
O345       Ni351   1.920       .  S
O345        C355   1.282   1_655  A
O346       Ni351   1.918       .  S
O346        C356   1.280       .  A
O347       Ni352   1.916       .  S
O347        C356   1.279   1_455  A
O348       Ni352   1.918       .  S
O348        C355   1.281       .  A
O349       Ni352   1.918       .  S
O349        C354   1.280       .  A
O350       Ni352   1.920       .  S
O350        C353   1.282   1_455  A
Ni351      Ni352   2.392   1_655  S
C354        C482   1.435       .  S
C355        C393   1.470       .  S
C356        C486   1.434       .  S
C357        C358   1.532   1_455  S
C357        C363   1.525       .  S
C357        C361   1.532       .  S
C357        C476   1.467       .  S
C358        H365   1.087       .  S
C358        C359   1.365       .  D
C359        C360   1.539   1_655  S
C359        C614   1.440       .  S
C360        C364   1.538       .  S
C360        C362   1.540       .  S
C360        H366   1.111       .  S
C361        H367   1.087       .  S
C361        C362   1.365       .  D
C362        C557   1.440       .  S
C363        H368   1.087       .  S
C363        C364   1.361       .  D
C364        C477   1.439       .  S
C369        C370   1.532   1_655  S
C369        C375   1.525       .  S
C369        C373   1.532       .  S
C369        C479   1.467       .  S
C370        H377   1.087       .  S
C370        C371   1.365       .  D
C371        C372   1.539   1_455  S
C371        C510   1.440       .  S
C372        C376   1.538       .  S
C372        C374   1.540       .  S
C372        H378   1.111       .  S
C373        H379   1.087       .  S
C373        C374   1.366       .  D
C374        C498   1.440       .  S
C375        H380   1.087       .  S
C375        C376   1.361       .  D
C376        C478   1.439       .  S
O381       Ni389   1.918       .  S
O381        C391   1.281       .  A
O382       Ni389   1.917       .  S
O382        C392   1.279       .  A
O383       Ni389   1.920       .  S
O383        C393   1.282       .  A
O384       Ni389   1.918       .  S
O384        C394   1.280       .  A
O385       Ni390   1.917       .  S
O385        C394   1.279   1_655  A
O386       Ni390   1.919       .  S
O386        C393   1.281   1_655  A
O387       Ni390   1.918       .  S
O387        C392   1.280   1_655  A
O388       Ni390   1.919       .  S
O388        C391   1.282   1_655  A
Ni389      Ni390   2.392   1_455  S
C391        C453   1.469       .  S
C392        C473   1.434       .  S
C394        C469   1.435       .  S
C395        C396   1.532   1_655  S
C395        C401   1.525       .  S
C395        C399   1.532       .  S
C395        C463   1.467       .  S
C396        H403   1.087       .  S
C396        C397   1.365       .  D
C397        C398   1.540   1_455  S
C397        C521   1.441       .  S
C398        C402   1.539       .  S
C398        C400   1.540       .  S
C398        H404   1.111       .  S
C399        H405   1.087       .  S
C399        C400   1.366       .  D
C400        C541   1.441       .  S
C401        H406   1.087       .  S
C401        C402   1.361       .  D
C402        C467   1.440       .  S
C407        C408   1.532   1_455  S
C407        C413   1.525       .  S
C407        C411   1.532       .  S
C407        C496   1.468       .  S
C408        H415   1.087       .  S
C408        C409   1.365       .  D
C409        C410   1.540   1_655  S
C409        C586   1.441       .  S
C410        C414   1.538       .  S
C410        C412   1.540       .  S
C410        H416   1.111       .  S
C411        H417   1.087       .  S
C411        C412   1.366       .  D
C412        C573   1.441       .  S
C413        H418   1.087   1_455  S
C413        C414   1.361       .  D
C414        C468   1.440   1_455  S
C419        C420   1.532   1_455  S
C419        C425   1.525       .  S
C419        C423   1.532       .  S
C419        C457   1.467       .  S
C420        H427   1.087       .  S
C420        C421   1.365       .  D
C421        C422   1.540   1_655  S
C421        C500   1.441       .  S
C422        C426   1.539       .  S
C422        C424   1.540       .  S
C422        H428   1.111       .  S
C423        H429   1.087       .  S
C423        C424   1.366       .  D
C424        C508   1.441       .  S
C425        H430   1.087       .  S
C425        C426   1.361       .  D
C426        C461   1.440       .  S
C431        C432   1.532   1_655  S
C431        C437   1.525       .  S
C431        C435   1.532       .  S
C431        C472   1.467       .  S
C432        H439   1.087       .  S
C432        C433   1.365       .  D
C433        C434   1.540   1_455  S
C433        C572   1.440       .  S
C434        C438   1.538       .  S
C434        C436   1.540       .  S
C434        H440   1.111       .  S
C435        H441   1.087       .  S
C435        C436   1.366       .  D
C436        C588   1.441       .  S
C437        H442   1.087       .  S
C437        C438   1.361       .  D
C438        C462   1.440   1_655  S
O443       Ni451   1.918       .  S
O443        C453   1.281   1_655  A
O444       Ni451   1.917       .  S
O444        C454   1.279       .  A
O445       Ni451   1.920       .  S
O445        C455   1.282       .  A
O446       Ni451   1.918       .  S
O446        C456   1.280   1_655  A
O447       Ni452   1.916       .  S
O447        C456   1.279       .  A
O448       Ni452   1.918       .  S
O448        C455   1.281   1_455  A
O449       Ni452   1.918       .  S
O449        C454   1.280   1_455  A
O450       Ni452   1.920       .  S
O450        C453   1.282       .  A
Ni451      Ni452   2.392   1_655  S
C454        C466   1.435       .  S
C456        C460   1.434       .  S
C457        C458   1.205       .  T
C458        C459   1.411       .  S
C459        C460   1.205       .  T
C461        C462   1.205       .  T
C463        C464   1.205       .  T
C464        C465   1.411       .  S
C465        C466   1.205       .  T
C467        C468   1.205       .  T
C469        C470   1.205       .  T
C470        C471   1.412       .  S
C471        C472   1.206   1_455  T
C473        C474   1.205       .  T
C474        C475   1.411       .  S
C475        C476   1.205       .  T
C477        C478   1.205   1_455  T
C479        C480   1.205       .  T
C480        C481   1.411       .  S
C481        C482   1.205   1_655  T
C483        C484   1.205       .  T
C484        C485   1.411       .  S
C485        C486   1.205   1_455  T
C487        C488   1.205   1_455  T
C489        C490   1.205       .  T
C490        C491   1.411       .  S
C491        C492   1.205       .  T
C493        C494   1.206       .  T
C494        C495   1.412       .  S
C495        C496   1.206   1_655  T
C497        C498   1.205       .  T
C499        C500   1.205       .  T
C501        C502   1.205       .  T
C502        C503   1.411       .  S
C503        C504   1.205       .  T
C505        C506   1.205       .  T
C507        C508   1.205       .  T
C509        C510   1.205       .  T
C511        C512   1.206       .  T
C512        C513   1.412       .  S
C513        C514   1.206       .  T
C515        C516   1.205       .  T
C517        C518   1.205       .  T
C518        C519   1.411       .  S
C519        C520   1.205       .  T
C521        C522   1.205       .  T
C523        C524   1.205       .  T
C525        C526   1.205       .  T
C526        C527   1.411       .  S
C527        C528   1.205       .  T
C529        C530   1.205       .  T
C531        C532   1.205       .  T
C532        C533   1.411       .  S
C533        C534   1.205       .  T
C535        C536   1.205       .  T
C537        C538   1.205       .  T
C538        C539   1.411       .  S
C539        C540   1.205       .  T
C541        C542   1.205       .  T
C543        C544   1.205       .  T
C545        C546   1.205       .  T
C546        C547   1.411       .  S
C547        C548   1.205       .  T
C549        C550   1.205       .  T
C550        C551   1.411       .  S
C551        C552   1.205       .  T
C553        C554   1.205       .  T
C555        C556   1.205       .  T
C557        C558   1.205       .  T
C559        C560   1.205       .  T
C561        C562   1.205       .  T
C562        C563   1.411       .  S
C563        C564   1.205       .  T
C565        C566   1.205       .  T
C567        C568   1.205       .  T
C569        C570   1.205       .  T
C571        C572   1.205       .  T
C573        C574   1.205       .  T
C575        C576   1.205       .  T
C576        C577   1.411       .  S
C577        C578   1.205       .  T
C579        C580   1.205       .  T
C581        C582   1.205       .  T
C582        C583   1.411       .  S
C583        C584   1.205       .  T
C585        C586   1.205       .  T
C587        C588   1.205       .  T
C589        C590   1.205       .  T
C591        C592   1.205       .  T
C593        C594   1.205       .  T
C594        C595   1.411       .  S
C595        C596   1.205       .  T
C597        C598   1.205   1_556  T
C599        C600   1.206       .  T
C600        C601   1.411   1_556  S
C601        C602   1.205       .  T
C603        C604   1.205       .  T
C605        C606   1.205       .  T
C607        C608   1.205       .  T
C609        C610   1.205       .  T
C610        C611   1.411       .  S
C611        C612   1.205       .  T
C613        C614   1.205       .  T
C615        C616   1.205   1_554  T
C617        C618   1.205       .  T
C618        C619   1.411       .  S
C619        C620   1.205   1_554  T
C621        C622   1.205       .  T
C622        C623   1.411       .  S
C623        C624   1.205       .  T
