geometry optimzed in LAMMPS
_audit_creation_date              2020-12-01 
_audit_creation_method            'lammps2cif' 
_symmetry_space_group_name_H-M    'P1' 
_symmetry_Int_Tables_number       1 
_symmetry_cell_setting            triclinic 
loop_ 
_symmetry_equiv_pos_as_xyz 
  x,y,z 
_cell_length_a                    37.53908568 
_cell_length_b                    37.41570929128788 
_cell_length_c                    36.730196775053 
_cell_angle_alpha                 90.27248363356073 
_cell_angle_beta                  89.81885347109655 
_cell_angle_gamma                 120.68547420929929 
loop_ 
_atom_site_label 
_atom_site_type_symbol 
_atom_site_fract_x 
_atom_site_fract_y 
_atom_site_fract_z 
_atom_site_charge 
C1          C  0.32734105  0.65640882  0.21120095     0.46300
H2          H  0.32726852  0.65234326  0.18120205    -0.02700
C3          C  0.32781738  0.66656378  0.28124294     0.46400
H4          H  0.32757937  0.67015306  0.31124352    -0.02700
C5          C  0.28472022  0.62955570  0.22917860    -0.16400
C6          C  0.35585868  0.64525198  0.23136782    -0.16200
C7          C  0.34199727  0.70143425  0.22283772    -0.16500
C8          C  0.28509008  0.63577660  0.26598959    -0.16500
C9          C  0.35610618  0.65037742  0.26836039    -0.16100
C10         C  0.34211236  0.70663363  0.25991560    -0.16400
C11         C  0.66672827  0.34335198  0.21876206     0.46300
H12         H  0.66837232  0.34372969  0.18881516    -0.02700
C13         C  0.66307867  0.34173717  0.28942237     0.46400
H14         H  0.66079704  0.34050395  0.31958003    -0.02700
C15         C  0.63132394  0.30230370  0.23399106    -0.16400
C16         C  0.70622529  0.34955044  0.23705448    -0.16200
C17         C  0.66002430  0.37751698  0.23530634    -0.16500
C18         C  0.62954682  0.30165318  0.27130066    -0.16500
C19         C  0.70436544  0.34879590  0.27428241    -0.16100
C20         C  0.65812606  0.37631067  0.27276554    -0.16400
O21         O  0.95518851  0.43855991  0.04214241    -0.72100
O22         O  0.04244853  0.48066889  0.46423716    -0.73100
O23         O  0.95542992  0.43991543  0.46587357    -0.61700
O24         O  0.04211345  0.48073233  0.04148686    -0.70100
O25         O  0.04147737  0.42103460  0.04178911    -0.69700
O26         O  0.95080121  0.37837914  0.46519495    -0.60900
O27         O  0.03885673  0.41956932  0.46371687    -0.73400
O28         O  0.95295548  0.37809978  0.04255498    -0.72200
Cu29       Cu  0.99919014  0.46255261  0.50332899     1.04600
Cu30       Cu  0.99618866  0.39757552  0.50313415     1.04300
C31         C  0.93989639  0.40155944  0.05416868     0.94100
C32         C  0.05392207  0.45629789  0.45135863     0.93200
C33         C  0.93851132  0.40267656  0.45411221     0.85400
C34         C  0.05548373  0.45803235  0.05382707     0.91700
O35         O  0.55446983  0.51652368  0.03739708    -0.72100
O36         O  0.50094675  0.56425441  0.47645704    -0.73100
O37         O  0.53560977  0.51412654  0.46357966    -0.61700
O38         O  0.51805686  0.56452618  0.05105041    -0.70100
O39         O  0.57863451  0.62269137  0.04429058    -0.69700
O40         O  0.59733932  0.57033212  0.45445665    -0.60900
O41         O  0.56235158  0.62114750  0.46814631    -0.73400
O42         O  0.61567769  0.57382820  0.02949709    -0.72200
Cu43       Cu  0.52511775  0.53814074  0.50763382     1.04600
Cu44       Cu  0.59071768  0.59912684  0.49877259     1.04300
C45         C  0.59349767  0.53772813  0.04314323     0.94100
C46         C  0.52340801  0.60027126  0.46247881     0.93200
C47         C  0.56896293  0.53358631  0.44524633     0.85400
C48         C  0.54481876  0.60092932  0.06193634     0.91700
O49         O  0.45461713  0.04697664  0.45285695    -0.72100
O50         O  0.40427501  0.97127770  0.03899364    -0.73100
O51         O  0.46129747  0.05793443  0.02976464    -0.61700
O52         O  0.39782955  0.96076012  0.46218039    -0.70100
O53         O  0.45077053  0.95001290  0.46290356    -0.69700
O54         O  0.51376307  0.04638994  0.02918341    -0.60900
O55         O  0.45729903  0.96068026  0.03871578    -0.73400
O56         O  0.50696481  0.03526437  0.45364268    -0.72200
Cu57       Cu  0.42765386  0.00966818  0.99596092     1.04600
Cu58       Cu  0.48396491  0.99761066  0.99605019     1.04300
C59         C  0.48872516  0.05274215  0.43963251     0.94100
C60         C  0.42287488  0.95363369  0.05212497     0.93200
C61         C  0.49770116  0.06751829  0.03988328     0.85400
C62         C  0.41475863  0.94030327  0.45166520     0.91700
C63         C  0.53279730  0.16006805  0.10485897     0.19500
C64         C  0.51541575  0.16661327  0.13615348    -0.18500
C65         C  0.54001530  0.19904865  0.16020674    -0.10800
C66         C  0.58253568  0.22585239  0.15300915     0.21800
C67         C  0.59934539  0.21997784  0.12093019    -0.20200
C68         C  0.57482766  0.18756380  0.09707965    -0.11000
C69         C  0.61095334  0.26017914  0.17770888    -0.15200
C70         C  0.60044872  0.26826646  0.21040827    -0.29000
C71         C  0.50679591  0.12427924  0.08076020    -0.03300
C72         C  0.52242338  0.10346554  0.06371434    -0.39800
H73         H  0.48294769  0.14600164  0.14241344     0.12900
H74         H  0.52534896  0.20252621  0.18418398     0.12600
H75         H  0.63176118  0.24040234  0.11436021     0.12000
H76         H  0.58882675  0.18417279  0.07248964     0.12200
H77         H  0.64285821  0.27876617  0.16889479     0.15000
H78         H  0.56944980  0.24916024  0.22103432     0.13800
H79         H  0.47396020  0.11349868  0.07861641     0.11400
H80         H  0.55451659  0.11233218  0.06808949     0.13500
C81         C  0.56003153  0.19245567  0.31072671     0.19500
C82         C  0.56553045  0.15827324  0.31367721    -0.18500
C83         C  0.54224728  0.12678347  0.33862487    -0.10800
C84         C  0.51290644  0.12899259  0.36100482     0.21800
C85         C  0.50525872  0.16159779  0.35604936    -0.20200
C86         C  0.52869549  0.19320100  0.33120128    -0.11000
C87         C  0.49099661  0.09880115  0.39060078    -0.15200
C88         C  0.50820274  0.07993894  0.40812636    -0.29000
C89         C  0.58789874  0.22708969  0.28658310    -0.03300
C90         C  0.59874899  0.26662221  0.29361601    -0.39800
H91         H  0.58882990  0.15660520  0.29749460     0.12900
H92         H  0.54763839  0.10107825  0.34053648     0.12600
H93         H  0.48214382  0.16341453  0.37237717     0.12000
H94         H  0.52255225  0.21834078  0.32837212     0.12200
H95         H  0.46162603  0.09454239  0.40010325     0.15000
H96         H  0.53849896  0.08558638  0.40011414     0.13800
H97         H  0.60267749  0.22042889  0.26421505     0.11400
H98         H  0.58828097  0.27428921  0.31843449     0.13500
C99         C  0.84993230  0.39845539  0.39839796     0.19500
C100        C  0.82732310  0.41850580  0.40364632    -0.18500
C101        C  0.79317927  0.40872155  0.38188420    -0.10800
C102        C  0.78123935  0.37911995  0.35400357     0.21800
C103        C  0.80360374  0.35858213  0.34889843    -0.20200
C104        C  0.83779913  0.36833223  0.37080547    -0.11000
C105        C  0.74532868  0.37070687  0.33110672    -0.15200
C106        C  0.73908025  0.35438143  0.29750706    -0.29000
C107        C  0.88660009  0.41115888  0.42163515    -0.03300
C108        C  0.90371718  0.38776169  0.42830371    -0.39800
H109        H  0.83610363  0.44187591  0.42473512     0.12900
H110        H  0.77638548  0.42480507  0.38652558     0.12600
H111        H  0.79477729  0.33477438  0.32832420     0.12000
H112        H  0.85490635  0.35274004  0.36562399     0.12200
H113        H  0.72506019  0.38122300  0.34137736     0.15000
H114        H  0.76106259  0.34700609  0.28571288     0.13800
H115        H  0.89892714  0.44091444  0.43547377     0.11400
H116        H  0.89092211  0.35693861  0.41661236     0.13500
C117        C  0.85419809  0.39110353  0.11817909     0.19500
C118        C  0.85065176  0.41805842  0.14250895    -0.18500
C119        C  0.81545240  0.40381635  0.16420204    -0.10800
C120        C  0.78286520  0.36231761  0.16161936     0.21800
C121        C  0.78603255  0.33546104  0.13686652    -0.20200
C122        C  0.82152770  0.34959317  0.11544671    -0.11000
C123        C  0.74443120  0.34721850  0.18300164    -0.15200
C124        C  0.74471582  0.36148833  0.21659410    -0.29000
C125        C  0.89096490  0.40805828  0.09424096    -0.03300
C126        C  0.90581709  0.38483073  0.08074223    -0.39800
H127        H  0.87509541  0.45031962  0.14454766     0.12900
H128        H  0.81330556  0.42566289  0.18216813     0.12600
H129        H  0.76094665  0.30357777  0.13403724     0.12000
H130        H  0.82268303  0.32836428  0.09603097     0.12200
H131        H  0.71558365  0.32318866  0.17118621     0.15000
H132        H  0.77405012  0.38275041  0.22956313     0.13800
H133        H  0.90644985  0.44095118  0.08770930     0.11400
H134        H  0.89208595  0.35247822  0.08855052     0.13500
C135        C  0.64323458  0.43330858  0.15532840     0.19500
C136        C  0.66169427  0.45045199  0.12172527    -0.18500
C137        C  0.64576033  0.46940748  0.09980163    -0.10800
C138        C  0.61061895  0.47077936  0.11101826     0.21800
C139        C  0.59191880  0.45321998  0.14438679    -0.20200
C140        C  0.60814247  0.43482845  0.16648509    -0.11000
C141        C  0.59137512  0.48823893  0.08769865    -0.15200
C142        C  0.61351746  0.52068869  0.06565408    -0.29000
C143        C  0.65828016  0.41032939  0.17672171    -0.03300
C144        C  0.65490850  0.40781368  0.21315443    -0.39800
H145        H  0.68817689  0.44876367  0.11230113     0.12900
H146        H  0.66009356  0.48169336  0.07365629     0.12600
H147        H  0.56448218  0.45346880  0.15323789     0.12000
H148        H  0.59221553  0.42046830  0.19161982     0.12200
H149        H  0.55811955  0.47521376  0.09009034     0.15000
H150        H  0.64709739  0.53612968  0.06514160     0.13800
H151        H  0.67115732  0.39467056  0.16159770     0.11400
H152        H  0.64630871  0.42794959  0.22681761     0.13500
C153        C  0.61379651  0.49995463  0.36703877     0.19500
C154        C  0.65246955  0.50342623  0.36219537    -0.18500
C155        C  0.65696275  0.47685548  0.33824537    -0.12300
C156        C  0.62264994  0.44613684  0.31863604     0.21800
C157        C  0.58457378  0.44440175  0.32185054    -0.20200
C158        C  0.58010977  0.47100866  0.34575728    -0.11000
C159        C  0.62547449  0.41588012  0.29427887    -0.15200
C160        C  0.65575529  0.40690646  0.29677455    -0.29000
C161        C  0.60921666  0.52573137  0.39540740    -0.03300
C162        C  0.57358135  0.51192883  0.41369889    -0.39800
H163        H  0.67904452  0.52600435  0.37773747     0.12900
H164        H  0.68734975  0.48060976  0.33530321     0.12600
H165        H  0.55796032  0.42184246  0.30632663     0.12000
H166        H  0.55020495  0.46863772  0.34761875     0.12200
H167        H  0.60085265  0.39907967  0.27453680     0.15000
H168        H  0.67769593  0.41920177  0.31907180     0.13800
H169        H  0.63654692  0.55456293  0.40382651     0.11400
H170        H  0.54700924  0.48171316  0.40717661     0.13500
C171        C  0.21304359  0.54298602  0.16199075     0.19500
C172        C  0.22013253  0.52482269  0.13131458    -0.18500
C173        C  0.18719753  0.49675337  0.10931295    -0.10800
C174        C  0.14666795  0.48669720  0.11746627     0.21800
C175        C  0.13916198  0.50260744  0.14942173    -0.20200
C176        C  0.17191794  0.53033635  0.17154386    -0.11000
C177        C  0.11305894  0.46288661  0.09088330    -0.15200
C178        C  0.08679011  0.47594828  0.08268694    -0.29000
C179        C  0.24935064  0.57500121  0.18284946    -0.03300
C180        C  0.24737286  0.59952550  0.20871327    -0.39800
H181        H  0.25138979  0.53336444  0.12368635     0.12900
H182        H  0.19359415  0.48456260  0.08494551     0.12600
H183        H  0.10791304  0.49426857  0.15686817     0.12000
H184        H  0.16451356  0.54181790  0.19569172     0.12200
H185        H  0.11270342  0.43797283  0.07526820     0.15000
H186        H  0.09031552  0.50354676  0.09608973     0.13800
H187        H  0.27933699  0.57868457  0.17647119     0.11400
H188        H  0.21823230  0.59662751  0.21663342     0.13500
C189        C  0.13060084  0.52285959  0.37585346     0.19500
C190        C  0.13988118  0.56034588  0.35926591    -0.18500
C191        C  0.16886994  0.57700606  0.33120056    -0.10800
C192        C  0.18943289  0.55655574  0.31922339     0.21800
C193        C  0.17940889  0.51848012  0.33485123    -0.20200
C194        C  0.15056342  0.50187027  0.36317647    -0.11000
C195        C  0.22247787  0.57521539  0.29144627    -0.15200
C196        C  0.24882603  0.61637143  0.29035316    -0.29000
C197        C  0.10063214  0.50771774  0.40655451    -0.03300
C198        C  0.08443269  0.46991362  0.42163602    -0.39800
H199        H  0.12481922  0.57701987  0.36821574     0.12900
H200        H  0.17525546  0.60596493  0.31896640     0.12600
H201        H  0.19495843  0.50226609  0.32594960     0.12000
H202        H  0.14499447  0.47322524  0.37527578     0.12200
H203        H  0.22769432  0.55479855  0.27396899     0.15000
H204        H  0.24688819  0.63633231  0.31084337     0.13800
H205        H  0.09081381  0.52864049  0.41683683     0.11400
H206        H  0.09242292  0.44760192  0.41169808     0.13500
C207        C  0.44220930  0.62882658  0.19417908     0.19500
C208        C  0.48380368  0.65677782  0.18533626    -0.18500
C209        C  0.50473101  0.64537031  0.16051543    -0.10800
C210        C  0.48431529  0.60547975  0.14468530     0.21800
C211        C  0.44360486  0.57685294  0.15550731    -0.20200
C212        C  0.42271791  0.58834399  0.17988514    -0.11000
C213        C  0.50282165  0.59214774  0.11585912    -0.15200
C214        C  0.53536916  0.61770242  0.09470586    -0.29000
C215        C  0.41911093  0.64265626  0.21730614    -0.03300
C216        C  0.37888924  0.62914236  0.21123087    -0.39800
H217        H  0.49960031  0.68793144  0.19661094     0.12900
H218        H  0.53645855  0.66789549  0.15362125     0.12600
H219        H  0.42732544  0.54571428  0.14417621     0.12000
H220        H  0.39111793  0.56563144  0.18718670     0.12200
H221        H  0.48606183  0.55909858  0.10955420     0.15000
H222        H  0.55326299  0.65089258  0.09978056     0.13800
H223        H  0.43605472  0.66679164  0.23750378     0.11400
H224        H  0.36324503  0.60896071  0.18814014     0.13500
C225        C  0.44614883  0.61269061  0.40381253     0.19500
C226        C  0.41255794  0.58417536  0.38257117    -0.18500
C227        C  0.39488882  0.59801496  0.35710503    -0.10800
C228        C  0.41030844  0.64074867  0.35273532     0.21800
C229        C  0.44281680  0.66926926  0.37494708    -0.20200
C230        C  0.46085062  0.65544051  0.40018182    -0.11000
C231        C  0.39186731  0.65598812  0.32606318    -0.15200
C232        C  0.37715232  0.63690505  0.29397543    -0.29000
C233        C  0.46474809  0.59657858  0.42955389    -0.03300
C234        C  0.50481250  0.61822859  0.43918802    -0.39800
H235        H  0.40031851  0.55109444  0.38534185     0.12900
H236        H  0.36883546  0.57522935  0.34121212     0.12600
H237        H  0.45456023  0.70228628  0.37244273     0.12000
H238        H  0.48582181  0.67818643  0.41703326     0.12200
H239        H  0.39181841  0.68436075  0.33239884     0.15000
H240        H  0.38083903  0.61096242  0.28609236     0.13800
H241        H  0.44550624  0.56474257  0.43887096     0.11400
H242        H  0.52512942  0.64915931  0.42844950     0.13500
C243        C  0.37013156  0.80274111  0.17205457     0.19500
C244        C  0.35300325  0.82832348  0.16915664    -0.18500
C245        C  0.36935968  0.86141870  0.14453062    -0.10800
C246        C  0.40344771  0.86958073  0.12250847     0.21800
C247        C  0.42118943  0.84467663  0.12627362    -0.20200
C248        C  0.40490106  0.81175230  0.15076226    -0.11000
C249        C  0.42204789  0.90351969  0.09534783    -0.15200
C250        C  0.40386624  0.92388360  0.08233903    -0.29000
C251        C  0.35237688  0.76810073  0.19856591    -0.03300
C252        C  0.35728203  0.73502638  0.19546887    -0.39800
H253        H  0.32675547  0.82253554  0.18585656     0.12900
H254        H  0.35543924  0.88052041  0.14323524     0.12600
H255        H  0.44782049  0.85061881  0.11005475     0.12000
H256        H  0.42018363  0.79399008  0.15327296     0.12200
H257        H  0.45163966  0.91047346  0.08387232     0.15000
H258        H  0.37384059  0.91721995  0.09219180     0.13800
H259        H  0.33386718  0.76940902  0.22073307     0.11400
H260        H  0.37131045  0.73088633  0.17118614     0.13500
C261        C  0.39233580  0.85271966  0.38387623     0.19500
C262        C  0.41833871  0.84570970  0.36124557    -0.18500
C263        C  0.40175452  0.81308891  0.33616662    -0.10800
C264        C  0.35866487  0.78656722  0.33346058     0.21800
C265        C  0.33258747  0.79327068  0.35627908    -0.20200
C266        C  0.34918102  0.82619430  0.38118639    -0.11000
C267        C  0.34040129  0.74939159  0.30977031    -0.15200
C268        C  0.35852934  0.74681458  0.27909317    -0.29000
C269        C  0.41173021  0.88673877  0.41097463    -0.03300
C270        C  0.39271902  0.90547569  0.42595211    -0.39800
H271        H  0.45169626  0.86535498  0.36321330     0.12900
H272        H  0.42279241  0.80786330  0.31993523     0.12600
H273        H  0.29931057  0.77263364  0.35513293     0.12000
H274        H  0.32821128  0.82986181  0.39893156     0.12200
H275        H  0.31098009  0.72284256  0.31815337     0.15000
H276        H  0.38595817  0.77388772  0.26837677     0.13800
H277        H  0.44393853  0.89800696  0.41775958     0.11400
H278        H  0.36135300  0.89652756  0.41827072     0.13500
C279        C  0.32670786  0.65609666  0.71138904     0.46300
H280        H  0.32650819  0.65188253  0.68140061    -0.02700
C281        C  0.32746936  0.66652344  0.78140793     0.46400
H282        H  0.32735793  0.67025015  0.81139685    -0.02700
C283        C  0.28424489  0.62905923  0.72954827    -0.16400
C284        C  0.35562234  0.64543112  0.73149597    -0.16200
C285        C  0.34102695  0.70107955  0.72286005    -0.16500
C286        C  0.28474380  0.63534716  0.76636546    -0.16500
C287        C  0.35603639  0.65069256  0.76847780    -0.16100
C288        C  0.34129165  0.70642773  0.75992923    -0.16400
C289        C  0.66694051  0.34337043  0.71892342     0.46300
H290        H  0.66865722  0.34388697  0.68897942    -0.02700
C291        C  0.66326758  0.34138932  0.78957688     0.46400
H292        H  0.66092972  0.33998020  0.81972472    -0.02700
C293        C  0.63153450  0.30224093  0.73401953    -0.16400
C294        C  0.70643868  0.34951491  0.73715823    -0.16200
C295        C  0.66020242  0.37744325  0.73565143    -0.16500
C296        C  0.62974840  0.30138821  0.77133007    -0.16500
C297        C  0.70457633  0.34854547  0.77438042    -0.16100
C298        C  0.65831656  0.37606225  0.77311876    -0.16400
O299        O  0.95547389  0.43959656  0.54203582    -0.72100
O300        O  0.04220063  0.47950573  0.96446420    -0.73100
O301        O  0.95525508  0.43864418  0.96601635    -0.61700
O302        O  0.04240909  0.48166323  0.54122694    -0.70100
O303        O  0.04171129  0.42193208  0.54128717    -0.69700
O304        O  0.95081268  0.37719369  0.96541840    -0.60900
O305        O  0.03890776  0.41854661  0.96422036    -0.73400
O306        O  0.95327481  0.37915124  0.54231500    -0.72200
Cu307      Cu  0.99894154  0.46144751  0.00351174     1.04600
Cu308      Cu  0.99607241  0.39653465  0.00351704     1.04300
C309        C  0.94025857  0.40259703  0.55405232     0.94100
C310        C  0.05380838  0.45519341  0.95171120     0.93200
C311        C  0.93845569  0.40141109  0.95426317     0.85400
C312        C  0.05576214  0.45889481  0.55343118     0.91700
O313        O  0.55401036  0.51654930  0.53825262    -0.72100
O314        O  0.50111678  0.56455768  0.97641514    -0.73100
O315        O  0.53627045  0.51501283  0.96279573    -0.61700
O316        O  0.51807042  0.56515019  0.55113337    -0.70100
O317        O  0.57880114  0.62302802  0.54394150    -0.69700
O318        O  0.59796355  0.57143534  0.95415507    -0.60900
O319        O  0.56240805  0.62170666  0.96848963    -0.73400
O320        O  0.61532862  0.57355283  0.52981983    -0.72200
Cu321      Cu  0.52544553  0.53827112  0.00717271     1.04600
Cu322      Cu  0.59092793  0.59954869  0.99880229     1.04300
C323        C  0.59307324  0.53766575  0.54383572     0.94100
C324        C  0.52347781  0.60075192  0.96273490     0.93200
C325        C  0.56971631  0.53475904  0.94462941     0.85400
C326        C  0.54499215  0.60164723  0.56168756     0.91700
O327        O  0.45470937  0.04684389  0.95271068    -0.72100
O328        O  0.40384640  0.97130394  0.53904378    -0.73100
O329        O  0.46087323  0.05801358  0.52988550    -0.61700
O330        O  0.39792258  0.96068424  0.96217225    -0.70100
O331        O  0.45082774  0.94987317  0.96267916    -0.69700
O332        O  0.51336745  0.04651148  0.52952531    -0.60900
O333        O  0.45690231  0.96075891  0.53895884    -0.73400
O334        O  0.50702660  0.03508177  0.95326043    -0.72200
Cu335      Cu  0.42738553  0.00973699  0.49603636     1.04600
Cu336      Cu  0.48373073  0.99773665  0.49635916     1.04300
C337        C  0.48871906  0.05252790  0.93931924     0.94100
C338        C  0.42241352  0.95366122  0.55225199     0.93200
C339        C  0.49727097  0.06765739  0.54008121     0.85400
C340        C  0.41477495  0.94018599  0.95157865     0.91700
C341        C  0.53235985  0.16046317  0.60470850     0.19500
C342        C  0.51521488  0.16675093  0.63628451    -0.18500
C343        C  0.53993654  0.19916390  0.66030745    -0.10800
C344        C  0.58233622  0.22622899  0.65278581     0.21800
C345        C  0.59887577  0.22064009  0.62040178    -0.20200
C346        C  0.57423788  0.18821942  0.59659138    -0.11000
C347        C  0.61091455  0.26044399  0.67751478    -0.15200
C348        C  0.60056429  0.26840240  0.71034145    -0.29000
C349        C  0.50632368  0.12457810  0.58072895    -0.03300
C350        C  0.52197606  0.10373392  0.56378692    -0.39800
H351        H  0.48286428  0.14591179  0.64281364     0.12900
H352        H  0.52546121  0.20236426  0.68454268     0.12600
H353        H  0.63118594  0.24125729  0.61358498     0.12000
H354        H  0.58802000  0.18496850  0.57179570     0.12200
H355        H  0.64279255  0.27903935  0.66860806     0.15000
H356        H  0.56957452  0.24934728  0.72099808     0.13800
H357        H  0.47346464  0.11371676  0.57865270     0.11400
H358        H  0.55411150  0.11272545  0.56813448     0.13500
C359        C  0.55965182  0.19201608  0.81034243     0.19500
C360        C  0.56468209  0.15750980  0.81291870    -0.18500
C361        C  0.54136616  0.12601428  0.83786195    -0.10800
C362        C  0.51245421  0.12853893  0.86059073     0.21800
C363        C  0.50519296  0.16144134  0.85597161    -0.20200
C364        C  0.52866567  0.19304932  0.83114009    -0.11000
C365        C  0.49068701  0.09841951  0.89026229    -0.15200
C366        C  0.50797613  0.07956774  0.90767523    -0.29000
C367        C  0.58766683  0.22670116  0.78628850    -0.03300
C368        C  0.59887564  0.26629034  0.79356124    -0.39800
H369        H  0.58768028  0.15560557  0.79647604     0.12900
H370        H  0.54642722  0.10007735  0.83954384     0.12600
H371        H  0.48239952  0.16350359  0.87257737     0.12000
H372        H  0.52284532  0.21843193  0.82860137     0.12200
H373        H  0.46143501  0.09429127  0.89996363     0.15000
H374        H  0.53817902  0.08511758  0.89944517     0.13800
H375        H  0.60223157  0.21999027  0.76377468     0.11400
H376        H  0.58860603  0.27393421  0.81850942     0.13500
C377        C  0.84969143  0.39693607  0.89871474     0.19500
C378        C  0.82664980  0.41644586  0.90444499    -0.18500
C379        C  0.79255932  0.40676254  0.88266357    -0.10800
C380        C  0.78111071  0.37782728  0.85427285     0.21800
C381        C  0.80389265  0.35779311  0.84868792    -0.20200
C382        C  0.83803312  0.36742470  0.87064168    -0.11000
C383        C  0.74525603  0.36959326  0.83138342    -0.15200
C384        C  0.73930756  0.35398931  0.79752197    -0.29000
C385        C  0.88635906  0.40966167  0.92193388    -0.03300
C386        C  0.90370383  0.38643464  0.92839592    -0.39800
H387        H  0.83506520  0.43933345  0.92591819     0.12900
H388        H  0.77543364  0.42243565  0.88768529     0.12600
H389        H  0.79544770  0.33449084  0.82769396     0.12000
H390        H  0.85550037  0.35227377  0.86512315     0.12200
H391        H  0.72476456  0.37968202  0.84195365     0.15000
H392        H  0.76151586  0.34707036  0.78549946     0.13800
H393        H  0.89845531  0.43927015  0.93598216     0.11400
H394        H  0.89109966  0.35571849  0.91651508     0.13500
C395        C  0.85437270  0.39165671  0.61813443     0.19500
C396        C  0.85021374  0.41874254  0.64183906    -0.18500
C397        C  0.81504845  0.40430823  0.66361747    -0.10800
C398        C  0.78310083  0.36247471  0.66174000     0.21800
C399        C  0.78686535  0.33545769  0.63763129    -0.20200
C400        C  0.82233047  0.34979033  0.61613349    -0.11000
C401        C  0.74469700  0.34714187  0.68320415    -0.15200
C402        C  0.74494837  0.36171709  0.71664808    -0.29000
C403        C  0.89106003  0.40877188  0.59406124    -0.03300
C404        C  0.90633644  0.38582232  0.58078432    -0.39800
H405        H  0.87414349  0.45124923  0.64331733     0.12900
H406        H  0.81239400  0.42621316  0.68110161     0.12600
H407        H  0.76226533  0.30328615  0.63536558     0.12000
H408        H  0.82390372  0.32838251  0.59721520     0.12200
H409        H  0.71591790  0.32269577  0.67161016     0.15000
H410        H  0.77425458  0.38342345  0.72944700     0.13800
H411        H  0.90608101  0.44154466  0.58717756     0.11400
H412        H  0.89306420  0.35361374  0.58887508     0.13500
C413        C  0.64304997  0.43343102  0.65603382     0.19500
C414        C  0.66132311  0.45051944  0.62236815    -0.18500
C415        C  0.64534515  0.46954115  0.60059380    -0.10800
C416        C  0.61034021  0.47105361  0.61202174     0.21800
C417        C  0.59184247  0.45358309  0.64547919    -0.20200
C418        C  0.60812525  0.43512426  0.66743765    -0.11000
C419        C  0.59102060  0.48852568  0.58879479    -0.15200
C420        C  0.61309023  0.52076013  0.56651531    -0.29000
C421        C  0.65805201  0.41026147  0.67719304    -0.03300
C422        C  0.65511791  0.40787099  0.71364957    -0.39800
H423        H  0.68767736  0.44870573  0.61276364     0.12900
H424        H  0.65952094  0.48173757  0.57438202     0.12600
H425        H  0.56450995  0.45393374  0.65449710     0.12000
H426        H  0.59236230  0.42082471  0.69264696     0.12200
H427        H  0.55779747  0.47561866  0.59134613     0.15000
H428        H  0.64665734  0.53608490  0.56583219     0.13800
H429        H  0.67049430  0.39433917  0.66185555     0.11400
H430        H  0.64690879  0.42823602  0.72744399     0.13500
C431        C  0.61511999  0.50100154  0.86700629     0.19500
C432        C  0.65346389  0.50353595  0.86294571    -0.18500
C433        C  0.65776681  0.47665410  0.83922125    -0.12300
C434        C  0.62358333  0.44654993  0.81905740     0.21800
C435        C  0.58591809  0.44577975  0.82150870    -0.20200
C436        C  0.58165866  0.47271034  0.84516273    -0.11000
C437        C  0.62610514  0.41602038  0.79480335    -0.15200
C438        C  0.65610371  0.40663979  0.79730735    -0.29000
C439        C  0.61051306  0.52689219  0.89525843    -0.03300
C440        C  0.57456021  0.51344115  0.91293146    -0.39800
H441        H  0.67988634  0.52559350  0.87893903     0.12900
H442        H  0.68790767  0.47970521  0.83690594     0.12600
H443        H  0.55944242  0.42374075  0.80554951     0.12000
H444        H  0.55206061  0.47107724  0.84641026     0.12200
H445        H  0.60151750  0.39945956  0.77498294     0.15000
H446        H  0.67801547  0.41868760  0.81962921     0.13800
H447        H  0.63796392  0.55530177  0.90422473     0.11400
H448        H  0.54783640  0.48352565  0.90592129     0.13500
C449        C  0.21240707  0.54241292  0.66252408     0.19500
C450        C  0.21943497  0.52378487  0.63215931    -0.18500
C451        C  0.18653356  0.49587559  0.61004639    -0.10800
C452        C  0.14611408  0.48646146  0.61777399     0.21800
C453        C  0.13861743  0.50279364  0.64945853    -0.20200
C454        C  0.17132947  0.53036165  0.67169048    -0.11000
C455        C  0.11267270  0.46295438  0.59098697    -0.15200
C456        C  0.08708257  0.47669234  0.58227843    -0.29000
C457        C  0.24873812  0.57434096  0.68341254    -0.03300
C458        C  0.24686357  0.59905826  0.70913058    -0.39800
H459        H  0.25064121  0.53186030  0.62483728     0.12900
H460        H  0.19290845  0.48334262  0.58589562     0.12600
H461        H  0.10742575  0.49494969  0.65657467     0.12000
H462        H  0.16392714  0.54222276  0.69558395     0.12200
H463        H  0.11187454  0.43760733  0.57573384     0.15000
H464        H  0.09106177  0.50461321  0.59540011     0.13800
H465        H  0.27867142  0.57781974  0.67717473     0.11400
H466        H  0.21780221  0.59639829  0.71694999     0.13500
C467        C  0.12909913  0.52134774  0.87516954     0.19500
C468        C  0.13973270  0.55987258  0.85995275    -0.18500
C469        C  0.16894962  0.57693033  0.83210028    -0.10800
C470        C  0.18839661  0.55583369  0.81892770     0.21800
C471        C  0.17684154  0.51667041  0.83301239    -0.20200
C472        C  0.14770208  0.49960379  0.86108339    -0.11000
C473        C  0.22164484  0.57471395  0.79132945    -0.15200
C474        C  0.24862276  0.61577475  0.79092152    -0.29000
C475        C  0.09900089  0.50589152  0.90579819    -0.03300
C476        C  0.08429651  0.46881903  0.92196550    -0.39800
H477        H  0.12562843  0.57710689  0.86987224     0.12900
H478        H  0.17635666  0.60669420  0.82097396     0.12600
H479        H  0.19133868  0.49982867  0.82304019     0.12000
H480        H  0.14069131  0.46985954  0.87169452     0.12200
H481        H  0.22632063  0.55437954  0.77326130     0.15000
H482        H  0.24717115  0.63549008  0.81194900     0.13800
H483        H  0.08810668  0.52619023  0.91540855     0.11400
H484        H  0.09359602  0.44715323  0.91308022     0.13500
C485        C  0.44271568  0.63063741  0.69373546     0.19500
C486        C  0.48384666  0.65910918  0.68390353    -0.18500
C487        C  0.50479102  0.64769874  0.65909685    -0.10800
C488        C  0.48487303  0.60730178  0.64428536     0.21800
C489        C  0.44467152  0.57830092  0.65604567    -0.20200
C490        C  0.42376848  0.58977731  0.68040503    -0.11000
C491        C  0.50326803  0.59370604  0.61556503    -0.15200
C492        C  0.53572603  0.61895124  0.59419639    -0.29000
C493        C  0.41944089  0.64422378  0.71688555    -0.03300
C494        C  0.37893064  0.62968229  0.71133330    -0.39800
H495        H  0.49921985  0.69060486  0.69439995     0.12900
H496        H  0.53611248  0.67061216  0.65142180     0.12600
H497        H  0.42877157  0.54680377  0.64549751     0.12000
H498        H  0.39256393  0.56673321  0.68846313     0.12200
H499        H  0.48655759  0.56056775  0.60963383     0.15000
H500        H  0.55371559  0.65220056  0.59892460     0.13800
H501        H  0.43635025  0.66889663  0.73665682     0.11400
H502        H  0.36316325  0.60887775  0.68861982     0.13500
C503        C  0.44616245  0.61309674  0.90402799     0.19500
C504        C  0.41294923  0.58461337  0.88241636    -0.18500
C505        C  0.39528357  0.59845616  0.85694478    -0.10800
C506        C  0.41030891  0.64116026  0.85293248     0.21800
C507        C  0.44241537  0.66962690  0.87552088    -0.20200
C508        C  0.46046385  0.65579969  0.90075839    -0.11000
C509        C  0.39179651  0.65637522  0.82628115    -0.15200
C510        C  0.37747515  0.63756306  0.79401774    -0.29000
C511        C  0.46480388  0.59698144  0.92973780    -0.03300
C512        C  0.50477703  0.61879892  0.93965739    -0.39800
H513        H  0.40101069  0.55155723  0.88489784     0.12900
H514        H  0.36952468  0.57568056  0.84077019     0.12600
H515        H  0.45383867  0.70260715  0.87331044     0.12000
H516        H  0.48513149  0.67849643  0.91788962     0.12200
H517        H  0.39127281  0.68445056  0.83284028     0.15000
H518        H  0.38166255  0.61197418  0.78597106     0.13800
H519        H  0.44572059  0.56498922  0.93871905     0.11400
H520        H  0.52496884  0.64991661  0.92924017     0.13500
C521        C  0.36908275  0.80227845  0.67178576     0.19500
C522        C  0.35259140  0.82846893  0.66942689    -0.18500
C523        C  0.36902936  0.86159798  0.64482632    -0.10800
C524        C  0.40254901  0.86916982  0.62227686     0.21800
C525        C  0.41963695  0.84362750  0.62544567    -0.20200
C526        C  0.40328438  0.81068428  0.64991236    -0.11000
C527        C  0.42129392  0.90321520  0.59523512    -0.15200
C528        C  0.40330158  0.92383809  0.58240885    -0.29000
C529        C  0.35135806  0.76771802  0.69840393    -0.03300
C530        C  0.35603307  0.73449609  0.69532309    -0.39800
H531        H  0.32681726  0.82317379  0.68657242     0.12900
H532        H  0.35567605  0.88123250  0.64398137     0.12600
H533        H  0.44583106  0.84910998  0.60879831     0.12000
H534        H  0.41813887  0.79247952  0.65195791     0.12200
H535        H  0.45077623  0.90997490  0.58364732     0.15000
H536        H  0.37333038  0.91727395  0.59233332     0.13800
H537        H  0.33314743  0.76928150  0.72070814     0.11400
H538        H  0.36973564  0.73009870  0.67094555     0.13500
C539        C  0.39198495  0.85259764  0.88375853     0.19500
C540        C  0.41784373  0.84578016  0.86076839    -0.18500
C541        C  0.40111009  0.81315654  0.83570562    -0.10800
C542        C  0.35801471  0.78644724  0.83337643     0.21800
C543        C  0.33208523  0.79297465  0.85654867    -0.20200
C544        C  0.34882882  0.82589788  0.88144910    -0.11000
C545        C  0.33964833  0.74924291  0.80973314    -0.15200
C546        C  0.35761929  0.74665934  0.77896360    -0.29000
C547        C  0.41153929  0.88660613  0.91082543    -0.03300
C548        C  0.39259682  0.90533520  0.92593439    -0.39800
H549        H  0.45120741  0.86557480  0.86244497     0.12900
H550        H  0.42206370  0.80807735  0.81920325     0.12600
H551        H  0.29881866  0.77218992  0.85569656     0.12000
H552        H  0.32799775  0.82943419  0.89948894     0.12200
H553        H  0.31034257  0.72264336  0.81827478     0.15000
H554        H  0.38492252  0.77374819  0.76810448     0.13800
H555        H  0.44379575  0.89789603  0.91743481     0.11400
H556        H  0.36118423  0.89636559  0.91839374     0.13500
loop_ 
_geom_bond_atom_site_label_1 
_geom_bond_atom_site_label_2 
_geom_bond_distance 
_geom_bond_site_symmetry_2 
_ccdc_geom_bond_type 
C1            H2   1.111       .  S
C1            C7   1.540       .  S
C1            C6   1.527       .  S
C1            C5   1.538       .  S
C3            H4   1.110       .  S
C3            C9   1.539       .  S
C3            C8   1.526       .  S
C3           C10   1.529       .  S
C5            C8   1.370       .  D
C5          C180   1.478       .  S
C6            C9   1.371       .  D
C6          C216   1.477       .  S
C7           C10   1.374       .  D
C7          C252   1.480       .  S
C8          C196   1.473       .  S
C9          C232   1.476       .  S
C10         C268   1.478       .  S
C11          H12   1.101       .  S
C11          C17   1.545       .  S
C11          C16   1.535       .  S
C11          C15   1.536       .  S
C13          H14   1.110       .  S
C13          C19   1.536       .  S
C13          C18   1.532       .  S
C13          C20   1.528       .  S
C15          C18   1.372       .  D
C15          C70   1.485       .  S
C16          C19   1.369       .  D
C16         C124   1.480       .  S
C17          C20   1.377       .  D
C17         C144   1.489       .  S
C18          C90   1.478       .  S
C19         C106   1.482       .  S
C20         C160   1.480       .  S
O21          C31   1.278       .  A
O21        Cu307   2.001       .  S
O22          C32   1.279       .  A
O22         Cu29   2.007   1_455  S
O23          C33   1.274       .  A
O23         Cu29   1.973       .  S
O24          C34   1.272       .  A
O24        Cu307   1.976   1_455  S
O25          C34   1.281       .  A
O25        Cu308   2.032   1_455  S
O26          C33   1.280       .  A
O26         Cu30   2.029       .  S
O27          C32   1.275       .  A
O27         Cu30   1.998   1_455  S
O28          C31   1.276       .  A
O28        Cu308   2.002       .  S
Cu29        O299   2.003       .  S
Cu29        O302   1.975   1_655  S
Cu29        Cu30   2.376       .  S
Cu30        O303   2.032   1_655  S
Cu30        O306   2.001       .  S
C31         C126   1.470       .  S
C32         C198   1.471       .  S
C33         C108   1.475       .  S
C34         C178   1.467       .  S
O35          C45   1.278       .  A
O35        Cu321   2.001       .  S
O36          C46   1.279       .  A
O36         Cu43   2.003       .  S
O37          C47   1.273       .  A
O37         Cu43   1.981       .  S
O38          C48   1.275       .  A
O38        Cu321   1.975       .  S
O39          C48   1.280       .  A
O39        Cu322   2.036   1_554  S
O40          C47   1.282       .  A
O40         Cu44   2.031       .  S
O41          C46   1.275       .  A
O41         Cu44   1.997       .  S
O42          C45   1.275       .  A
O42        Cu322   1.997   1_554  S
Cu43        O313   2.001       .  S
Cu43        O316   1.975       .  S
Cu43        Cu44   2.376       .  S
Cu44        O317   2.035       .  S
Cu44        O320   1.997       .  S
C45         C142   1.467       .  S
C46         C234   1.469       .  S
C47         C162   1.471       .  S
C48         C214   1.478       .  S
O49          C59   1.279       .  A
O49        Cu335   2.015       .  S
O50          C60   1.277       .  A
O50         Cu57   2.014   1_564  S
O51          C61   1.279       .  A
O51         Cu57   2.015   1_554  S
O52          C62   1.277       .  A
O52        Cu335   2.012   1_565  S
O53          C62   1.277       .  A
O53        Cu336   1.991       .  S
O54          C61   1.275       .  A
O54         Cu58   1.992   1_544  S
O55          C60   1.277       .  A
O55         Cu58   1.992   1_554  S
O56          C59   1.274       .  A
O56        Cu336   1.989   1_545  S
Cu57        O327   2.015       .  S
Cu57        O330   2.011   1_545  S
Cu57        Cu58   2.376   1_545  S
Cu58        O331   1.990       .  S
Cu58        O334   1.990   1_565  S
C59          C88   1.468       .  S
C60         C250   1.475       .  S
C61          C72   1.468       .  S
C62         C270   1.472       .  S
C63          C71   1.480       .  S
C63          C64   1.401       .  A
C63          C68   1.405       .  A
C64          C65   1.399       .  A
C64          H73   1.083       .  S
C65          C66   1.410       .  A
C65          H74   1.079       .  S
C66          C69   1.486       .  S
C66          C67   1.403       .  A
C67          C68   1.393       .  A
C67          H75   1.083       .  S
C68          H76   1.083       .  S
C69          C70   1.343       .  D
C69          H77   1.083       .  S
C70          H78   1.081       .  S
C71          C72   1.342       .  D
C71          H79   1.087       .  S
C72          H80   1.086       .  S
C81          C89   1.477       .  S
C81          C82   1.400       .  A
C81          C86   1.406       .  A
C82          C83   1.395       .  A
C82          H91   1.084       .  S
C83          C84   1.408       .  A
C83          H92   1.082       .  S
C84          C87   1.481       .  S
C84          C85   1.401       .  A
C85          C86   1.396       .  A
C85          H93   1.083       .  S
C86          H94   1.082       .  S
C87          C88   1.342       .  D
C87          H95   1.087       .  S
C88          H96   1.085       .  S
C89          C90   1.343       .  D
C89          H97   1.087       .  S
C90          H98   1.085       .  S
C99         C107   1.478       .  S
C99         C100   1.403       .  A
C99         C104   1.405       .  A
C100        C101   1.393       .  A
C100        H109   1.084       .  S
C101        C102   1.401       .  A
C101        H110   1.084       .  S
C102        C105   1.482       .  S
C102        C103   1.409       .  A
C103        C104   1.398       .  A
C103        H111   1.081       .  S
C104        H112   1.081       .  S
C105        C106   1.341       .  D
C105        H113   1.086       .  S
C106        H114   1.083       .  S
C107        C108   1.348       .  D
C107        H115   1.087       .  S
C108        H116   1.085       .  S
C117        C125   1.478       .  S
C117        C118   1.400       .  A
C117        C122   1.408       .  A
C118        C119   1.394       .  A
C118        H127   1.083       .  S
C119        C120   1.406       .  A
C119        H128   1.083       .  S
C120        C123   1.477       .  S
C120        C121   1.401       .  A
C121        C122   1.397       .  A
C121        H129   1.083       .  S
C122        H130   1.082       .  S
C123        C124   1.340       .  D
C123        H131   1.084       .  S
C124        H132   1.085       .  S
C125        C126   1.342       .  D
C125        H133   1.087       .  S
C126        H134   1.086       .  S
C135        C143   1.477       .  S
C135        C136   1.401       .  A
C135        C140   1.407       .  A
C136        C137   1.397       .  A
C136        H145   1.083       .  S
C137        C138   1.406       .  A
C137        H146   1.082       .  S
C138        C141   1.474       .  S
C138        C139   1.399       .  A
C139        C140   1.393       .  A
C139        H147   1.084       .  S
C140        H148   1.083       .  S
C141        C142   1.340       .  D
C141        H149   1.087       .  S
C142        H150   1.086       .  S
C143        C144   1.343       .  D
C143        H151   1.082       .  S
C144        H152   1.080       .  S
C153        C161   1.485       .  S
C153        C154   1.401       .  A
C153        C158   1.408       .  A
C154        C155   1.397       .  A
C154        H163   1.083       .  S
C155        C156   1.409       .  A
C155        H164   1.081       .  S
C156        C159   1.485       .  S
C156        C157   1.402       .  A
C157        C158   1.397       .  A
C157        H165   1.084       .  S
C158        H166   1.082       .  S
C159        C160   1.343       .  D
C159        H167   1.087       .  S
C160        H168   1.084       .  S
C161        C162   1.342       .  D
C161        H169   1.087       .  S
C162        H170   1.086       .  S
C171        C179   1.487       .  S
C171        C172   1.406       .  A
C171        C176   1.408       .  A
C172        C173   1.399       .  A
C172        H181   1.083       .  S
C173        C174   1.400       .  A
C173        H182   1.083       .  S
C174        C177   1.480       .  S
C174        C175   1.405       .  A
C175        C176   1.395       .  A
C175        H183   1.083       .  S
C176        H184   1.079       .  S
C177        C178   1.341       .  D
C177        H185   1.086       .  S
C178        H186   1.087       .  S
C179        C180   1.346       .  D
C179        H187   1.087       .  S
C180        H188   1.082       .  S
C189        C197   1.485       .  S
C189        C190   1.403       .  A
C189        C194   1.411       .  A
C190        C191   1.394       .  A
C190        H199   1.083       .  S
C191        C192   1.404       .  A
C191        H200   1.083       .  S
C192        C195   1.477       .  S
C192        C193   1.400       .  A
C193        C194   1.398       .  A
C193        H201   1.084       .  S
C194        H202   1.079       .  S
C195        C196   1.341       .  D
C195        H203   1.087       .  S
C196        H204   1.086       .  S
C197        C198   1.343       .  D
C197        H205   1.087       .  S
C198        H206   1.083       .  S
C207        C215   1.480       .  S
C207        C208   1.404       .  A
C207        C212   1.403       .  A
C208        C209   1.402       .  A
C208        H217   1.083       .  S
C209        C210   1.407       .  A
C209        H218   1.081       .  S
C210        C213   1.482       .  S
C210        C211   1.404       .  A
C211        C212   1.392       .  A
C211        H219   1.084       .  S
C212        H220   1.083       .  S
C213        C214   1.349       .  D
C213        H221   1.088       .  S
C214        H222   1.084       .  S
C215        C216   1.344       .  D
C215        H223   1.087       .  S
C216        H224   1.086       .  S
C225        C233   1.478       .  S
C225        C226   1.401       .  A
C225        C230   1.408       .  A
C226        C227   1.394       .  A
C226        H235   1.083       .  S
C227        C228   1.405       .  A
C227        H236   1.083       .  S
C228        C231   1.475       .  S
C228        C229   1.401       .  A
C229        C230   1.397       .  A
C229        H237   1.083       .  S
C230        H238   1.082       .  S
C231        C232   1.341       .  D
C231        H239   1.087       .  S
C232        H240   1.086       .  S
C233        C234   1.342       .  D
C233        H241   1.087       .  S
C234        H242   1.085       .  S
C243        C251   1.483       .  S
C243        C244   1.404       .  A
C243        C248   1.406       .  A
C244        C245   1.400       .  A
C244        H253   1.083       .  S
C245        C246   1.408       .  A
C245        H254   1.081       .  S
C246        C249   1.483       .  S
C246        C247   1.402       .  A
C247        C248   1.392       .  A
C247        H255   1.084       .  S
C248        H256   1.081       .  S
C249        C250   1.346       .  D
C249        H257   1.087       .  S
C250        H258   1.084       .  S
C251        C252   1.345       .  D
C251        H259   1.086       .  S
C252        H260   1.084       .  S
C261        C269   1.479       .  S
C261        C262   1.402       .  A
C261        C266   1.406       .  A
C262        C263   1.394       .  A
C262        H271   1.084       .  S
C263        C264   1.405       .  A
C263        H272   1.082       .  S
C264        C267   1.477       .  S
C264        C265   1.403       .  A
C265        C266   1.397       .  A
C265        H273   1.084       .  S
C266        H274   1.081       .  S
C267        C268   1.343       .  D
C267        H275   1.087       .  S
C268        H276   1.085       .  S
C269        C270   1.345       .  D
C269        H277   1.087       .  S
C270        H278   1.085       .  S
C279        H280   1.111       .  S
C279        C285   1.540       .  S
C279        C284   1.527       .  S
C279        C283   1.537       .  S
C281        H282   1.110       .  S
C281        C287   1.539       .  S
C281        C286   1.526       .  S
C281        C288   1.529       .  S
C283        C286   1.370       .  D
C283        C458   1.477       .  S
C284        C287   1.371       .  D
C284        C494   1.476       .  S
C285        C288   1.375       .  D
C285        C530   1.481       .  S
C286        C474   1.474       .  S
C287        C510   1.477       .  S
C288        C546   1.477       .  S
C289        H290   1.101       .  S
C289        C295   1.545       .  S
C289        C294   1.535       .  S
C289        C293   1.536       .  S
C291        H292   1.110       .  S
C291        C297   1.536       .  S
C291        C296   1.532       .  S
C291        C298   1.529       .  S
C293        C296   1.372       .  D
C293        C348   1.485       .  S
C294        C297   1.368       .  D
C294        C402   1.479       .  S
C295        C298   1.378       .  D
C295        C422   1.489       .  S
C296        C368   1.478       .  S
C297        C384   1.483       .  S
C298        C438   1.481       .  S
O299        C309   1.279       .  A
O300        C310   1.279       .  A
O300       Cu307   2.006   1_456  S
O301        C311   1.274       .  A
O301       Cu307   1.972   1_556  S
O302        C312   1.272       .  A
O303        C312   1.281       .  A
O304        C311   1.280       .  A
O304       Cu308   2.030   1_556  S
O305        C310   1.275       .  A
O305       Cu308   1.998   1_456  S
O306        C309   1.275       .  A
Cu307      Cu308   2.376       .  S
C309        C404   1.470       .  S
C310        C476   1.472       .  S
C311        C386   1.475       .  S
C312        C456   1.466       .  S
O313        C323   1.278       .  A
O314        C324   1.279       .  A
O314       Cu321   2.003   1_556  S
O315        C325   1.273       .  A
O315       Cu321   1.981   1_556  S
O316        C326   1.275       .  A
O317        C326   1.280       .  A
O318        C325   1.282       .  A
O318       Cu322   2.032       .  S
O319        C324   1.275       .  A
O319       Cu322   1.999       .  S
O320        C323   1.275       .  A
Cu321      Cu322   2.376   1_554  S
C323        C420   1.467       .  S
C324        C512   1.470       .  S
C325        C440   1.471       .  S
C326        C492   1.478       .  S
O327        C337   1.279       .  A
O328        C338   1.277       .  A
O328       Cu335   2.015   1_565  S
O329        C339   1.279       .  A
O329       Cu335   2.015       .  S
O330        C340   1.277       .  A
O331        C340   1.277       .  A
O332        C339   1.275       .  A
O332       Cu336   1.992   1_545  S
O333        C338   1.277       .  A
O333       Cu336   1.991       .  S
O334        C337   1.274       .  A
Cu335      Cu336   2.376   1_545  S
C337        C366   1.468       .  S
C338        C528   1.475       .  S
C339        C350   1.469       .  S
C340        C548   1.472       .  S
C341        C349   1.479       .  S
C341        C342   1.401       .  A
C341        C346   1.404       .  A
C342        C343   1.399       .  A
C342        H351   1.083       .  S
C343        C344   1.411       .  A
C343        H352   1.079       .  S
C344        C347   1.486       .  S
C344        C345   1.403       .  A
C345        C346   1.393       .  A
C345        H353   1.083       .  S
C346        H354   1.083       .  S
C347        C348   1.344       .  D
C347        H355   1.083       .  S
C348        H356   1.081       .  S
C349        C350   1.342       .  D
C349        H357   1.087       .  S
C350        H358   1.086       .  S
C359        C367   1.477       .  S
C359        C360   1.401       .  A
C359        C364   1.406       .  A
C360        C361   1.395       .  A
C360        H369   1.084       .  S
C361        C362   1.408       .  A
C361        H370   1.082       .  S
C362        C365   1.480       .  S
C362        C363   1.401       .  A
C363        C364   1.396       .  A
C363        H371   1.083       .  S
C364        H372   1.082       .  S
C365        C366   1.342       .  D
C365        H373   1.087       .  S
C366        H374   1.085       .  S
C367        C368   1.343       .  D
C367        H375   1.087       .  S
C368        H376   1.085       .  S
C377        C385   1.478       .  S
C377        C378   1.403       .  A
C377        C382   1.405       .  A
C378        C379   1.393       .  A
C378        H387   1.084       .  S
C379        C380   1.401       .  A
C379        H388   1.084       .  S
C380        C383   1.481       .  S
C380        C381   1.410       .  A
C381        C382   1.398       .  A
C381        H389   1.081       .  S
C382        H390   1.082       .  S
C383        C384   1.341       .  D
C383        H391   1.085       .  S
C384        H392   1.083       .  S
C385        C386   1.348       .  D
C385        H393   1.087       .  S
C386        H394   1.085       .  S
C395        C403   1.479       .  S
C395        C396   1.401       .  A
C395        C400   1.408       .  A
C396        C397   1.394       .  A
C396        H405   1.083       .  S
C397        C398   1.406       .  A
C397        H406   1.083       .  S
C398        C401   1.477       .  S
C398        C399   1.401       .  A
C399        C400   1.397       .  A
C399        H407   1.083       .  S
C400        H408   1.082       .  S
C401        C402   1.340       .  D
C401        H409   1.084       .  S
C402        H410   1.086       .  S
C403        C404   1.342       .  D
C403        H411   1.087       .  S
C404        H412   1.086       .  S
C413        C421   1.477       .  S
C413        C414   1.401       .  A
C413        C418   1.407       .  A
C414        C415   1.396       .  A
C414        H423   1.083       .  S
C415        C416   1.407       .  A
C415        H424   1.082       .  S
C416        C419   1.475       .  S
C416        C417   1.400       .  A
C417        C418   1.393       .  A
C417        H425   1.084       .  S
C418        H426   1.083       .  S
C419        C420   1.340       .  D
C419        H427   1.087       .  S
C420        H428   1.086       .  S
C421        C422   1.343       .  D
C421        H429   1.081       .  S
C422        H430   1.080       .  S
C431        C439   1.485       .  S
C431        C432   1.401       .  A
C431        C436   1.408       .  A
C432        C433   1.398       .  A
C432        H441   1.083       .  S
C433        C434   1.410       .  A
C433        H442   1.081       .  S
C434        C437   1.486       .  S
C434        C435   1.402       .  A
C435        C436   1.397       .  A
C435        H443   1.084       .  S
C436        H444   1.082       .  S
C437        C438   1.343       .  D
C437        H445   1.087       .  S
C438        H446   1.084       .  S
C439        C440   1.342       .  D
C439        H447   1.087       .  S
C440        H448   1.086       .  S
C449        C457   1.487       .  S
C449        C450   1.406       .  A
C449        C454   1.408       .  A
C450        C451   1.399       .  A
C450        H459   1.083       .  S
C451        C452   1.400       .  A
C451        H460   1.083       .  S
C452        C455   1.480       .  S
C452        C453   1.405       .  A
C453        C454   1.394       .  A
C453        H461   1.083       .  S
C454        H462   1.079       .  S
C455        C456   1.340       .  D
C455        H463   1.086       .  S
C456        H464   1.087       .  S
C457        C458   1.345       .  D
C457        H465   1.087       .  S
C458        H466   1.082       .  S
C467        C475   1.486       .  S
C467        C468   1.403       .  A
C467        C472   1.411       .  A
C468        C469   1.393       .  A
C468        H477   1.083       .  S
C469        C470   1.404       .  A
C469        H478   1.083       .  S
C470        C473   1.478       .  S
C470        C471   1.400       .  A
C471        C472   1.398       .  A
C471        H479   1.083       .  S
C472        H480   1.079       .  S
C473        C474   1.341       .  D
C473        H481   1.087       .  S
C474        H482   1.086       .  S
C475        C476   1.344       .  D
C475        H483   1.087       .  S
C476        H484   1.082       .  S
C485        C493   1.480       .  S
C485        C486   1.404       .  A
C485        C490   1.403       .  A
C486        C487   1.402       .  A
C486        H495   1.083       .  S
C487        C488   1.407       .  A
C487        H496   1.081       .  S
C488        C491   1.482       .  S
C488        C489   1.404       .  A
C489        C490   1.392       .  A
C489        H497   1.084       .  S
C490        H498   1.083       .  S
C491        C492   1.349       .  D
C491        H499   1.088       .  S
C492        H500   1.084       .  S
C493        C494   1.344       .  D
C493        H501   1.087       .  S
C494        H502   1.086       .  S
C503        C511   1.478       .  S
C503        C504   1.401       .  A
C503        C508   1.408       .  A
C504        C505   1.394       .  A
C504        H513   1.083       .  S
C505        C506   1.405       .  A
C505        H514   1.083       .  S
C506        C509   1.476       .  S
C506        C507   1.401       .  A
C507        C508   1.397       .  A
C507        H515   1.083       .  S
C508        H516   1.082       .  S
C509        C510   1.341       .  D
C509        H517   1.087       .  S
C510        H518   1.086       .  S
C511        C512   1.342       .  D
C511        H519   1.087       .  S
C512        H520   1.085       .  S
C521        C529   1.483       .  S
C521        C522   1.404       .  A
C521        C526   1.406       .  A
C522        C523   1.400       .  A
C522        H531   1.083       .  S
C523        C524   1.408       .  A
C523        H532   1.081       .  S
C524        C527   1.482       .  S
C524        C525   1.402       .  A
C525        C526   1.392       .  A
C525        H533   1.084       .  S
C526        H534   1.081       .  S
C527        C528   1.346       .  D
C527        H535   1.087       .  S
C528        H536   1.084       .  S
C529        C530   1.345       .  D
C529        H537   1.086       .  S
C530        H538   1.084       .  S
C539        C547   1.478       .  S
C539        C540   1.402       .  A
C539        C544   1.406       .  A
C540        C541   1.394       .  A
C540        H549   1.084       .  S
C541        C542   1.405       .  A
C541        H550   1.082       .  S
C542        C545   1.476       .  S
C542        C543   1.402       .  A
C543        C544   1.397       .  A
C543        H551   1.084       .  S
C544        H552   1.081       .  S
C545        C546   1.343       .  D
C545        H553   1.087       .  S
C546        H554   1.085       .  S
C547        C548   1.344       .  D
C547        H555   1.087       .  S
C548        H556   1.085       .  S
