geometry optimzed in LAMMPS
_audit_creation_date              2020-11-30 
_audit_creation_method            'lammps2cif' 
_symmetry_space_group_name_H-M    'P1' 
_symmetry_Int_Tables_number       1 
_symmetry_cell_setting            triclinic 
loop_ 
_symmetry_equiv_pos_as_xyz 
  x,y,z 
_cell_length_a                    118.82810056 
_cell_length_b                    67.25046423630529 
_cell_length_c                    35.229106007321334 
_cell_angle_alpha                 89.98697039073546 
_cell_angle_beta                  90.02411374390638 
_cell_angle_gamma                 90.06167861631965 
loop_ 
_atom_site_label 
_atom_site_type_symbol 
_atom_site_fract_x 
_atom_site_fract_y 
_atom_site_fract_z 
_atom_site_charge 
O1          O  0.69564561  0.55695939  0.22539863    -0.79500
O2          O  0.69468855  0.46866739  0.18951326    -0.64200
O3          O  0.68451822  0.52131363  0.21128090    -1.10800
C4          C  0.68893029  0.50137417  0.33815126     1.07400
O5          O  0.68166310  0.45794483  0.22896705    -0.77400
O6          O  0.66904352  0.48327187  0.27001007    -0.65000
Ni7        Ni  0.68940105  0.54339115  0.18234179     1.34900
C8          C  0.66568439  0.50090496  0.27581982     0.86100
O9          O  0.68765864  0.49890679  0.14441378    -0.78000
O10         O  0.68354573  0.53129374  0.13738604    -0.88200
C11         C  0.68922326  0.45436896  0.20436229     0.85700
O12         O  0.70407120  0.53425284  0.16912730    -0.66400
O13         O  0.68550927  0.48480788  0.32455313    -0.85700
C14         C  0.70967102  0.51859261  0.17590931     0.86500
C15         C  0.68494503  0.51386821  0.12389594     1.08100
H16         H  0.69978677  0.49115208  0.25737007     0.39900
O17         O  0.69188311  0.49312932  0.25186146    -1.08400
O18         O  0.67235319  0.51568667  0.27620765    -0.65000
Ni19       Ni  0.68806352  0.51981182  0.26432100     1.26300
O20         O  0.70537103  0.50351122  0.19243622    -0.65300
O21         O  0.69145135  0.51632616  0.31727376    -0.77600
C22         C  0.69020484  0.56105739  0.25538116     0.85900
O23         O  0.68506296  0.54740512  0.27334642    -0.64700
Ni24       Ni  0.68377275  0.47233274  0.27571503     1.27400
Ni25       Ni  0.68982860  0.49553102  0.19831220     1.26100
H26         H  0.67642778  0.52097643  0.20852616     0.40400
O27         O  0.69335517  0.55837821  0.72730147    -0.79500
O28         O  0.69453552  0.46837186  0.69121923    -0.64200
O29         O  0.68375911  0.52127362  0.70979537    -1.10800
C30         C  0.68774187  0.50198807  0.83859153     1.07400
O31         O  0.68153541  0.45839706  0.73066097    -0.77400
O32         O  0.66912035  0.48118122  0.77638200    -0.65000
Ni33       Ni  0.68922571  0.54360603  0.68235541     1.34900
C34         C  0.66476177  0.49836631  0.77636325     0.86100
O35         O  0.68752096  0.49796637  0.64459019    -0.78000
O36         O  0.68543135  0.53094113  0.63526200    -0.88200
C37         C  0.68935189  0.45420420  0.70761526     0.85700
O38         O  0.70449421  0.53530997  0.67564656    -0.66400
O39         O  0.68643638  0.48437852  0.82578602    -0.85700
C40         C  0.70964863  0.51889639  0.67980883     0.86500
C41         C  0.68613614  0.51309926  0.62310054     1.08100
H42         H  0.69913337  0.49323942  0.75831636     0.39900
O43         O  0.69119467  0.49389909  0.75244621    -1.08400
O44         O  0.67050921  0.51407350  0.77124296    -0.65000
Ni45       Ni  0.68620671  0.52011563  0.76356440     1.26300
O46         O  0.70485268  0.50334779  0.69272835    -0.65300
O47         O  0.68859942  0.51739439  0.81742010    -0.77600
C48         C  0.68713056  0.56146957  0.75610672     0.85900
O49         O  0.68190833  0.54715018  0.77160551    -0.64700
Ni50       Ni  0.68425341  0.47209879  0.77737657     1.27400
Ni51       Ni  0.68937521  0.49535404  0.69855306     1.26100
H52         H  0.67574556  0.52091142  0.70511194     0.40400
O53         O  0.55310712  0.55638241  0.38977352    -0.79500
O54         O  0.55413713  0.46776568  0.43423023    -0.64200
O55         O  0.56378456  0.52092028  0.41039084    -1.10800
C56         C  0.56154257  0.49749181  0.28385877     1.07400
O57         O  0.56832619  0.45940133  0.39866482    -0.77400
O58         O  0.58062533  0.48187759  0.35284163    -0.65000
Ni59       Ni  0.55820709  0.54362477  0.43568231     1.34900
C60         C  0.58410063  0.49961356  0.34990647     0.86100
O61         O  0.56011607  0.49962548  0.47871037    -0.78000
O62         O  0.56295204  0.53263648  0.48317788    -0.88200
C63         C  0.56009167  0.45416211  0.41906315     0.85700
O64         O  0.54336200  0.53435028  0.44586094    -0.66400
O65         O  0.56408695  0.48088975  0.29925886    -0.85700
C66         C  0.53825588  0.51786919  0.44215287     0.86500
C67         C  0.56198895  0.51541856  0.49815298     1.08100
H68         H  0.54963678  0.48958910  0.36388870     0.39900
O69         O  0.55747515  0.49173274  0.37061006    -1.08400
O70         O  0.57744571  0.51434504  0.35002933    -0.65000
Ni71       Ni  0.56147767  0.51807774  0.35667657     1.26300
O72         O  0.54291625  0.50235529  0.42833976    -0.65300
O73         O  0.55940408  0.51325781  0.30305544    -0.77600
C74         C  0.55926355  0.55951159  0.36084773     0.85900
O75         O  0.56468538  0.54531015  0.34583374    -0.64700
Ni76       Ni  0.56596207  0.47058189  0.34960023     1.27400
Ni77       Ni  0.55866244  0.49506465  0.42462592     1.26100
H78         H  0.57179877  0.52105330  0.41513005     0.40400
O79         O  0.55514236  0.55792426  0.90189866    -0.79500
O80         O  0.55453310  0.46629662  0.92635087    -0.64200
O81         O  0.56454107  0.52004486  0.91350296    -1.10800
C82         C  0.55790340  0.50655555  0.78295663     1.07400
O83         O  0.56581101  0.45737814  0.87986159    -0.77400
O84         O  0.57717351  0.48231792  0.83396997    -0.65000
Ni85       Ni  0.55928465  0.54123310  0.94417473     1.34900
C86         C  0.58205574  0.49891689  0.83898985     0.86100
O87         O  0.56260327  0.49385638  0.97526854    -0.78000
O88         O  0.56307541  0.52659066  0.98903148    -0.88200
C89         C  0.55912607  0.45274630  0.90651820     0.85700
O90         O  0.54406402  0.53289161  0.94902028    -0.66400
O91         O  0.55832228  0.48820652  0.79192508    -0.85700
C92         C  0.53906691  0.51627769  0.94610908     0.86500
C93         C  0.56371031  0.50831079  0.99859993     1.08100
H94         H  0.54811099  0.49473511  0.86471749     0.39900
O95         O  0.55617080  0.49459303  0.86834808    -1.08400
O96         O  0.57693987  0.51433778  0.85047287    -0.65000
Ni97       Ni  0.56150711  0.52103996  0.86032400     1.26300
O98         O  0.54384531  0.50063443  0.93352386    -0.65300
O99         O  0.55865512  0.52084182  0.80667881    -0.77600
C100        C  0.56121037  0.56195284  0.87319826     0.85900
O101        O  0.56623926  0.54811605  0.85559878    -0.64700
Ni102      Ni  0.56187973  0.47372383  0.83723386     1.27400
Ni103      Ni  0.55926762  0.49358970  0.92179094     1.26100
H104        H  0.57259763  0.51976803  0.91718495     0.40400
O105        O  0.70117591  0.70484018  0.38280835    -0.79500
O106        O  0.69592023  0.79283190  0.43355911    -0.64200
O107        O  0.68966575  0.73865716  0.40747961    -1.10800
C108        C  0.69385214  0.76376895  0.28071728     1.07400
O109        O  0.68329731  0.80001158  0.39116257    -0.77400
O110        O  0.67402436  0.77942110  0.33519758    -0.65000
Ni111      Ni  0.69763112  0.71736046  0.43060165     1.34900
C112        C  0.66977350  0.76230303  0.33962436     0.86100
O113        O  0.69029043  0.76040909  0.47532123    -0.78000
O114        O  0.69455046  0.72792581  0.48029291    -0.88200
C115        C  0.69048945  0.80581892  0.41504395     0.85700
O116        O  0.71232077  0.72892417  0.43214276    -0.66400
O117        O  0.69341077  0.78107920  0.29545446    -0.85700
C118        C  0.71533336  0.74690171  0.43627687     0.86500
C119        C  0.69192655  0.74467066  0.49500632     1.08100
H120        H  0.70362044  0.77008097  0.36450017     0.39900
O121        O  0.69561239  0.76862671  0.36865865    -1.08400
O122        O  0.67559797  0.74726299  0.34931483    -0.65000
Ni123      Ni  0.69157880  0.74250365  0.35389295     1.26300
O124        O  0.70870259  0.76147462  0.43144020    -0.65300
O125        O  0.69333832  0.74764750  0.30012567    -0.77600
C126        C  0.69425960  0.70141417  0.35599609     0.85900
O127        O  0.68826339  0.71538855  0.34265735    -0.64700
Ni128      Ni  0.68856769  0.79033847  0.34388540     1.27400
Ni129      Ni  0.69295173  0.76527237  0.42228136     1.26100
H130        H  0.68178571  0.73632754  0.41271317     0.40400
O131        O  0.69432547  0.70338106  0.89557578    -0.79500
O132        O  0.69663593  0.79457245  0.92446276    -0.64200
O133        O  0.68563091  0.74145115  0.91098341    -1.10800
C134        C  0.69148772  0.75683786  0.78025767     1.07400
O135        O  0.68431190  0.80367485  0.88132933    -0.77400
O136        O  0.67247336  0.78055228  0.83264943    -0.65000
Ni137      Ni  0.69092579  0.71949889  0.93956652     1.34900
C138        C  0.66734145  0.76427574  0.83868022     0.86100
O139        O  0.68929557  0.76640196  0.97379085    -0.78000
O140        O  0.68791446  0.73351085  0.98589008    -0.88200
C141        C  0.69170526  0.80827039  0.90584271     0.85700
O142        O  0.70631360  0.72715325  0.94379518    -0.66400
O143        O  0.69134431  0.77503726  0.79051444    -0.85700
C144        C  0.71150268  0.74362252  0.94120293     0.86500
C145        C  0.68831140  0.75165939  0.99655792     1.08100
H146        H  0.70166118  0.76663550  0.86075371     0.39900
O147        O  0.69367137  0.76712460  0.86580562    -1.08400
O148        O  0.67231309  0.74871663  0.85034653    -0.65000
Ni149      Ni  0.68783812  0.74121648  0.85722580     1.26300
O150        O  0.70695970  0.75945019  0.92835400    -0.65300
O151        O  0.69014798  0.74222540  0.80309663    -0.77600
C152        C  0.68790252  0.70022853  0.86726102     0.85900
O153        O  0.68269433  0.71452607  0.85175748    -0.64700
Ni154      Ni  0.68789492  0.78864290  0.83677887     1.27400
Ni155      Ni  0.69150338  0.76745398  0.91973778     1.26100
H156        H  0.67764519  0.74212965  0.91603639     0.40400
O157        O  0.55547713  0.70414726  0.23584586    -0.79500
O158        O  0.56033689  0.79499830  0.19848640    -0.64200
O159        O  0.56631762  0.73971499  0.21623498    -1.10800
C160        C  0.56236911  0.76036516  0.34590848     1.07400
O161        O  0.57329275  0.80087485  0.24101351    -0.77400
O162        O  0.58223693  0.77724764  0.29536207    -0.65000
Ni163      Ni  0.55829170  0.71933175  0.19056997     1.34900
C164        C  0.58639775  0.76030836  0.28806512     0.86100
O165        O  0.56543496  0.76433240  0.15163617    -0.78000
O166        O  0.56051768  0.73235250  0.14276628    -0.88200
C167        C  0.56635881  0.80739242  0.21671436     0.85700
O168        O  0.54361031  0.73056503  0.19406600    -0.66400
O169        O  0.56263874  0.77812947  0.33331463    -0.85700
C170        C  0.54045321  0.74850961  0.19097187     0.86500
C171        C  0.56313127  0.74954160  0.13018746     1.08100
H172        H  0.55263882  0.76948656  0.26392363     0.39900
O173        O  0.56062607  0.76820858  0.25923593    -1.08400
O174        O  0.58067468  0.74608887  0.27422851    -0.65000
Ni175      Ni  0.56469064  0.74155227  0.27031893     1.26300
O176        O  0.54707222  0.76324818  0.19588788    -0.65300
O177        O  0.56324913  0.74488092  0.32479288    -0.77600
C178        C  0.56236515  0.70027244  0.26242811     0.85900
O179        O  0.56807215  0.71401077  0.27807758    -0.64700
Ni180      Ni  0.56780422  0.78900180  0.28660062     1.27400
Ni181      Ni  0.56299928  0.76692939  0.20537608     1.26100
H182        H  0.57416650  0.73763555  0.21022079     0.40400
O183        O  0.55369723  0.70424339  0.73814953    -0.79500
O184        O  0.55434948  0.79379830  0.69587457    -0.64200
O185        O  0.56361081  0.74036750  0.71648186    -1.10800
C186        C  0.55989023  0.76220500  0.84489821     1.07400
O187        O  0.56775755  0.80229492  0.73493408    -0.77400
O188        O  0.57884212  0.78106866  0.78668898    -0.65000
Ni189      Ni  0.55704452  0.71822324  0.69149017     1.34900
C190        C  0.58352818  0.76427887  0.78299175     0.86100
O191        O  0.56069821  0.76342949  0.65092904    -0.78000
O192        O  0.56000916  0.73020586  0.64288227    -0.88200
C193        C  0.56025085  0.80730624  0.71133449     0.85700
O194        O  0.54183040  0.72726334  0.68863881    -0.66400
O195        O  0.56039627  0.77980196  0.83136845    -0.85700
C196        C  0.53729817  0.74435107  0.68975504     0.86500
C197        C  0.56087161  0.74793566  0.63004105     1.08100
H198        H  0.54898032  0.76921969  0.76422284     0.39900
O199        O  0.55692158  0.76859739  0.75829124    -1.08400
O200        O  0.57795427  0.74867916  0.77467286    -0.65000
Ni201      Ni  0.56200546  0.74265234  0.77039341     1.26300
O202        O  0.54281682  0.76004268  0.69817817    -0.65300
O203        O  0.56034320  0.74649497  0.82433893    -0.77600
C204        C  0.56024063  0.70140938  0.76631262     0.85900
O205        O  0.56611058  0.71561890  0.77948979    -0.64700
Ni206      Ni  0.56382896  0.79058903  0.78251148     1.27400
Ni207      Ni  0.55862733  0.76655568  0.70443094     1.26100
H208        H  0.57154717  0.73983979  0.71050800     0.40400
O209        O  0.69577393  0.05419947  0.47972794    -0.79500
O210        O  0.69360835  0.96623208  0.44139649    -0.64200
O211        O  0.68427940  0.01922034  0.46334267    -1.10800
C212        C  0.68705869  0.99921141  0.59019736     1.07400
O213        O  0.68081897  0.95478091  0.48154282    -0.77400
O214        O  0.66789037  0.98146982  0.51727379    -0.65000
Ni215      Ni  0.68987446  0.04117263  0.43542645     1.34900
C216        C  0.66467748  0.99909825  0.52375896     0.86100
O217        O  0.68751446  0.99687928  0.39655149    -0.78000
O218        O  0.68451002  0.02966298  0.38895695    -0.88200
C219        C  0.68800007  0.95189416  0.45536554     0.85700
O220        O  0.70451273  0.03126189  0.42453745    -0.66400
O221        O  0.68313599  0.98305209  0.57636584    -0.85700
C222        C  0.70971152  0.01509147  0.43044952     0.86500
C223        C  0.68560418  0.01209443  0.37571293     1.08100
H224        H  0.69879159  0.98802716  0.51023078     0.39900
O225        O  0.69093704  0.99042415  0.50414611    -1.08400
O226        O  0.67154288  0.01352465  0.52699775    -0.65000
Ni227      Ni  0.68740250  0.01729084  0.51660344     1.26300
O228        O  0.70497903  0.00006099  0.44571760    -0.65300
O229        O  0.69047481  0.01356601  0.56943070    -0.77600
C230        C  0.69001970  0.05853660  0.50890623     0.85900
O231        O  0.68459538  0.04498582  0.52617970    -0.64700
Ni232      Ni  0.68225784  0.97008339  0.52752135     1.27400
Ni233      Ni  0.68922540  0.99318866  0.45050637     1.26100
H234        H  0.67621255  0.01940149  0.45981537     0.40400
O235        O  0.69668325  0.05683499  0.97789491    -0.79500
O236        O  0.69418947  0.96876461  0.94046142    -0.64200
O237        O  0.68485511  0.02180792  0.96276734    -1.10800
C238        C  0.68855479  0.00067170  0.08964936     1.07400
O239        O  0.68084784  0.95868649  0.97901215    -0.77400
O240        O  0.66857567  0.98415781  0.02094065    -0.65000
Ni241      Ni  0.69024460  0.04371858  0.93422077     1.34900
C242        C  0.66537317  0.00197892  0.02577747     0.86100
O243        O  0.68772566  0.99950009  0.89589225    -0.78000
O244        O  0.68422963  0.03215768  0.88858450    -0.88200
C245        C  0.68857103  0.95467013  0.95527260     0.85700
O246        O  0.70469944  0.03357022  0.92049537    -0.66400
O247        O  0.68500932  0.98428105  0.07565141    -0.85700
C248        C  0.70981241  0.01732024  0.92674215     0.86500
C249        C  0.68536075  0.01458995  0.87527597     1.08100
H250        H  0.69937884  0.99059788  0.00885099     0.39900
O251        O  0.69153602  0.99297351  0.00317310    -1.08400
O252        O  0.67225592  0.01647780  0.02648582    -0.65000
Ni253      Ni  0.68814554  0.01973786  0.01598282     1.26300
O254        O  0.70531875  0.00284423  0.94444966    -0.65300
O255        O  0.69120367  0.01569759  0.06911148    -0.77600
C256        C  0.69163174  0.06073006  0.00889599     0.85900
O257        O  0.68581813  0.04745450  0.02556109    -0.64700
Ni258      Ni  0.68310838  0.97239525  0.02636499     1.27400
Ni259      Ni  0.68968156  0.99577139  0.94964699     1.26100
H260        H  0.67677607  0.02197508  0.95960807     0.40400
O261        O  0.55036698  0.05609388  0.14420275    -0.79500
O262        O  0.55792202  0.96845070  0.19221867    -0.64200
O263        O  0.56308415  0.02318858  0.16730316    -1.10800
C264        C  0.55979776  0.99826076  0.04080084     1.07400
O265        O  0.57142046  0.96152846  0.15211962    -0.77400
O266        O  0.58070823  0.98489340  0.09984702    -0.65000
Ni267      Ni  0.55498368  0.04409907  0.19131334     1.34900
C268        C  0.58393505  0.00283482  0.10135172     0.86100
O269        O  0.56195857  0.00111471  0.23518758    -0.78000
O270        O  0.55893520  0.03401720  0.24044917    -0.88200
C271        C  0.56449605  0.95582146  0.17716148     0.85700
O272        O  0.54066730  0.03148854  0.19504021    -0.66400
O273        O  0.56214908  0.98136024  0.05528904    -0.85700
C274        C  0.53756292  0.01343603  0.19460487     0.86500
C275        C  0.56084647  0.01695370  0.25496067     1.08100
H276        H  0.55039049  0.98998747  0.12294266     0.39900
O277        O  0.55829979  0.99270566  0.12808881    -1.08400
O278        O  0.57722510  0.01721559  0.10743636    -0.65000
Ni279      Ni  0.56108172  0.01945664  0.11370372     1.26300
O280        O  0.54420353  0.99907401  0.18770185    -0.65300
O281        O  0.55898825  0.01431746  0.06021303    -0.77600
C282        C  0.55688107  0.06027707  0.11678079     0.85900
O283        O  0.56317521  0.04697398  0.10262941    -0.64700
Ni284      Ni  0.56653049  0.97201789  0.10443762     1.27400
Ni285      Ni  0.56019654  0.99628326  0.18164541     1.26100
H286        H  0.57095232  0.02575235  0.17228246     0.40400
O287        O  0.55354424  0.05963201  0.65211956    -0.79500
O288        O  0.55474250  0.96770898  0.68399949    -0.64200
O289        O  0.56309195  0.02239901  0.67089332    -1.10800
C290        C  0.55978783  0.00500902  0.53977358     1.07400
O291        O  0.56785385  0.96041407  0.64279749    -0.77400
O292        O  0.57879417  0.98426354  0.59414231    -0.65000
Ni293      Ni  0.55528065  0.04311488  0.69671205     1.34900
C294        C  0.58333062  0.00097157  0.60088192     0.86100
O295        O  0.56031493  0.99683826  0.73341684    -0.78000
O296        O  0.55648024  0.02910289  0.74419582    -0.88200
C297        C  0.56036647  0.95473502  0.66594568     0.85700
O298        O  0.54035224  0.03332988  0.68994080    -0.66400
O299        O  0.56008010  0.98691227  0.55060743    -0.85700
C300        C  0.53649830  0.01572624  0.69015865     0.86500
C301        C  0.55856491  0.01148171  0.75574546     1.08100
H302        H  0.54904201  0.99479115  0.61914215     0.39900
O303        O  0.55697260  0.99524539  0.62518291    -1.08400
O304        O  0.57779373  0.01591804  0.61270565    -0.65000
Ni305      Ni  0.56192036  0.02172212  0.61666914     1.26300
O306        O  0.54273949  0.00052174  0.68572927    -0.65300
O307        O  0.56062106  0.01990417  0.56221644    -0.77600
C308        C  0.56048451  0.06292692  0.62531100     0.85900
O309        O  0.56621367  0.04887215  0.61115349    -0.64700
Ni310      Ni  0.56380712  0.97424556  0.59749938     1.27400
Ni311      Ni  0.55861042  0.99540764  0.67929744     1.26100
H312        H  0.57091600  0.02355348  0.67792688     0.40400
O313        O  0.70001618  0.20547615  0.13916753    -0.79500
O314        O  0.69858184  0.29382079  0.17342438    -0.64200
O315        O  0.68847334  0.24093418  0.15333158    -1.10800
C316        C  0.69215645  0.25901473  0.02569650     1.07400
O317        O  0.68646337  0.30534253  0.13112730    -0.77400
O318        O  0.67307706  0.27901306  0.09493119    -0.65000
Ni319      Ni  0.69369820  0.21907292  0.18236234     1.34900
C320        C  0.66946428  0.26142673  0.09003442     0.86100
O321        O  0.69150689  0.26378576  0.21918487    -0.78000
O322        O  0.68771424  0.23118603  0.22719198    -0.88200
C323        C  0.69395632  0.30830321  0.15623139     0.85700
O324        O  0.70825475  0.22886020  0.19604544    -0.66400
O325        O  0.68877931  0.27574107  0.03839579    -0.85700
C326        C  0.71358296  0.24482497  0.18912331     0.86500
C327        C  0.68887063  0.24884362  0.23996783     1.08100
H328        H  0.70373006  0.27059550  0.10586943     0.39900
O329        O  0.69576033  0.26881982  0.11148133    -1.08400
O330        O  0.67599610  0.24642951  0.08914577    -0.65000
Ni331      Ni  0.69178273  0.24198730  0.10029352     1.26300
O332        O  0.70926078  0.25933443  0.17108022    -0.65300
O333        O  0.69502581  0.24461342  0.04725388    -0.77600
C334        C  0.69439141  0.20109264  0.10961284     0.85900
O335        O  0.68868447  0.21434407  0.09256982    -0.64700
Ni336      Ni  0.68780735  0.28938494  0.08615174     1.27400
Ni337      Ni  0.69369031  0.26690030  0.16521935     1.26100
H338        H  0.68039000  0.24107940  0.15649790     0.40400
O339        O  0.70045735  0.20414218  0.63119274    -0.79500
O340        O  0.69948331  0.29353421  0.67351549    -0.64200
O341        O  0.69014711  0.23986786  0.65315252    -1.10800
C342        C  0.69247285  0.26086788  0.52442569     1.07400
O343        O  0.68637260  0.30320780  0.63390792    -0.77400
O344        O  0.67423439  0.28018785  0.58665793    -0.65000
Ni345      Ni  0.69684865  0.21776982  0.67784859     1.34900
C346        C  0.66997725  0.26288816  0.58797844     0.86100
O347        O  0.69343627  0.26268372  0.71908879    -0.78000
O348        O  0.69365639  0.22940589  0.72633300    -0.88200
C349        C  0.69408903  0.30750863  0.65736693     0.85700
O350        O  0.71193221  0.22736633  0.68127210    -0.66400
O351        O  0.69163003  0.27843004  0.53783226    -0.85700
C352        C  0.71642385  0.24447624  0.67926179     0.86500
C353        C  0.69305362  0.24701986  0.73974282     1.08100
H354        H  0.70439511  0.26918745  0.60459235     0.39900
O355        O  0.69650005  0.26825375  0.61095418    -1.08400
O356        O  0.67576587  0.24736229  0.59457385    -0.65000
Ni357      Ni  0.69168927  0.24188382  0.59920684     1.26300
O358        O  0.71089831  0.25995776  0.66997353    -0.65300
O359        O  0.69318051  0.24529356  0.54516398    -0.77600
C360        C  0.69358127  0.20056711  0.60434845     0.85900
O361        O  0.68770284  0.21459870  0.59060402    -0.64700
Ni362      Ni  0.68927145  0.29002580  0.58675247     1.27400
Ni363      Ni  0.69508585  0.26617418  0.66510319     1.26100
H364        H  0.68222465  0.23923352  0.65923730     0.40400
O365        O  0.55624574  0.20521881  0.48855824    -0.79500
O366        O  0.55699123  0.29307831  0.44305597    -0.64200
O367        O  0.56687525  0.24026666  0.46589177    -1.10800
C368        C  0.56370864  0.26284132  0.59366828     1.07400
O369        O  0.57013552  0.30320454  0.48185672    -0.77400
O370        O  0.58238669  0.28152423  0.53038119    -0.65000
Ni371      Ni  0.56055875  0.21773199  0.44160312     1.34900
C372        C  0.58670769  0.26429184  0.52994087     0.86100
O373        O  0.56341921  0.26201764  0.39876332    -0.78000
O374        O  0.56429183  0.22859472  0.39289462    -0.88200
C375        C  0.56216190  0.30725509  0.45928854     0.85700
O376        O  0.54556591  0.22695728  0.43463043    -0.66400
O377        O  0.56490754  0.28024238  0.57968997    -0.85700
C378        C  0.54086305  0.24385304  0.43627842     0.86500
C379        C  0.56415792  0.24612768  0.37887156     1.08100
H380        H  0.55225302  0.26986899  0.51279048     0.39900
O381        O  0.56017762  0.26893759  0.50667089    -1.08400
O382        O  0.58087273  0.24862933  0.52497394    -0.65000
Ni383      Ni  0.56500377  0.24287723  0.51971209     1.26300
O384        O  0.54600068  0.25936254  0.44768849    -0.65300
O385        O  0.56314436  0.24703511  0.57345368    -0.77600
C386        C  0.56282200  0.20181010  0.51626142     0.85900
O387        O  0.56890266  0.21569211  0.52965029    -0.64700
Ni388      Ni  0.56731321  0.29108500  0.52998809     1.27400
Ni389      Ni  0.56172019  0.26615283  0.45260737     1.26100
H390        H  0.57483573  0.23987956  0.46030577     0.40400
O391        O  0.55526880  0.20354404  0.98191897    -0.79500
O392        O  0.55774937  0.29255997  0.94689416    -0.64200
O393        O  0.56670979  0.23890208  0.96530639    -1.10800
C394        C  0.56315937  0.25810789  0.09409290     1.07400
O395        O  0.57076634  0.30223382  0.98714971    -0.77400
O396        O  0.58274188  0.27733170  0.03057937    -0.65000
Ni397      Ni  0.56055798  0.21735291  0.93738349     1.34900
C398        C  0.58656116  0.25972802  0.02990460     0.86100
O399        O  0.56353618  0.26243590  0.90015642    -0.78000
O400        O  0.56531800  0.22943139  0.89060409    -0.88200
C401        C  0.56336641  0.30644409  0.96240272     0.85700
O402        O  0.54586404  0.22769902  0.92890011    -0.66400
O403        O  0.56549197  0.27554219  0.08200296    -0.85700
C404        C  0.54122169  0.24443899  0.93436018     0.86500
C405        C  0.56487702  0.24733887  0.87852041     1.08100
H406        H  0.55243683  0.26855764  0.01413562     0.39900
O407        O  0.56032751  0.26703386  0.00815901    -1.08400
O408        O  0.58026002  0.24448917  0.02661590    -0.65000
Ni409      Ni  0.56428683  0.24024311  0.01899278     1.26300
O410        O  0.54622897  0.25913151  0.94953650    -0.65300
O411        O  0.56190807  0.24300197  0.07252228    -0.77600
C412        C  0.56099608  0.19954191  0.01146348     0.85900
O413        O  0.56719281  0.21263337  0.02691042    -0.64700
Ni414      Ni  0.56793038  0.28798178  0.03351299     1.27400
Ni415      Ni  0.56197226  0.26530316  0.95430245     1.26100
H416        H  0.57472129  0.23846375  0.96067207     0.40400
O417        O  0.93304724  0.55560196  0.36912033    -0.79500
O418        O  0.93346410  0.46569667  0.40411181    -0.64200
O419        O  0.94236511  0.51969794  0.39014127    -1.10800
C420        C  0.93833843  0.50173168  0.25951475     1.07400
O421        O  0.94639783  0.45665064  0.36283280    -0.77400
O422        O  0.95713156  0.48033389  0.31131133    -0.65000
Ni423      Ni  0.93465497  0.54069514  0.41515488     1.34900
C424        C  0.96218737  0.49666654  0.31743686     0.86100
O425        O  0.93870100  0.49480232  0.45295141    -0.78000
O426        O  0.93560951  0.52732119  0.46325302    -0.88200
C427        C  0.93968724  0.45232225  0.38974625     0.85700
O428        O  0.91963403  0.53150546  0.40844590    -0.66400
O429        O  0.93798775  0.48375246  0.27120678    -0.85700
C430        C  0.91535392  0.51428052  0.40612972     0.86500
C431        C  0.93705091  0.50955023  0.47509201     1.08100
H432        H  0.92805380  0.49293510  0.33845622     0.39900
O433        O  0.93596954  0.49277502  0.34478415    -1.08400
O434        O  0.95721371  0.51170045  0.33176561    -0.65000
Ni435      Ni  0.94146864  0.51892766  0.33572028     1.26300
O436        O  0.92136003  0.49866455  0.40303139    -0.65300
O437        O  0.94009203  0.51674197  0.28122595    -0.77600
C438        C  0.94107555  0.56005727  0.34702856     0.85900
O439        O  0.94645231  0.54617167  0.33048649    -0.64700
Ni440      Ni  0.94206474  0.47101296  0.31775532     1.27400
Ni441      Ni  0.93736329  0.49313557  0.39874726     1.26100
H442        H  0.95018841  0.52050844  0.39759823     0.40400
O443        O  0.93272946  0.55215913  0.86221138    -0.79500
O444        O  0.93602916  0.46556404  0.91095985    -0.64200
O445        O  0.94331456  0.51920967  0.88788188    -1.10800
C446        C  0.93812330  0.49586973  0.76033265     1.07400
O447        O  0.94854700  0.45627661  0.86821573    -0.77400
O448        O  0.95743484  0.47779100  0.81036389    -0.65000
Ni449      Ni  0.93556300  0.54070582  0.91062061     1.34900
C450        C  0.96241947  0.49431298  0.81470808     0.86100
O451        O  0.94109573  0.49716827  0.95471610    -0.78000
O452        O  0.93787146  0.53004261  0.96040941    -0.88200
C453        C  0.94257920  0.45249058  0.89729301     0.85700
O454        O  0.92069013  0.53028791  0.90994250    -0.66400
O455        O  0.93755618  0.47843335  0.77475102    -0.85700
C456        C  0.91684866  0.51272617  0.91106188     0.86500
C457        C  0.93963170  0.51286421  0.97469246     1.08100
H458        H  0.92886162  0.48997929  0.84262203     0.39900
O459        O  0.93686854  0.49031502  0.84750580    -1.08400
O460        O  0.95768621  0.50937848  0.82971947    -0.65000
Ni461      Ni  0.94188289  0.51610255  0.83380532     1.26300
O462        O  0.92310259  0.49745617  0.90782413    -0.65300
O463        O  0.94016251  0.51157058  0.77989879    -0.77600
C464        C  0.94072394  0.55682082  0.84027710     0.85900
O465        O  0.94630699  0.54316888  0.82400266    -0.64700
Ni466      Ni  0.94282667  0.46795593  0.82219809     1.27400
Ni467      Ni  0.93908054  0.49293843  0.90111398     1.26100
H468        H  0.95121290  0.52081788  0.89415093     0.40400
O469        O  0.82135616  0.55371660  0.01758850    -0.79500
O470        O  0.81450792  0.46743734  0.97563655    -0.64200
O471        O  0.80828521  0.52176234  0.99622669    -1.10800
C472        C  0.80690993  0.50139727  0.12356025     1.07400
O473        O  0.80067173  0.45740160  0.01328237    -0.77400
O474        O  0.78845054  0.48673288  0.04830131    -0.65000
Ni475      Ni  0.81635647  0.54229869  0.97084871     1.34900
C476        C  0.78633266  0.50473956  0.05648378     0.86100
O477        O  0.81137487  0.49890349  0.92992025    -0.78000
O478        O  0.81203834  0.53209345  0.92215646    -0.88200
C479        C  0.80797547  0.45388592  0.98761350     0.85700
O480        O  0.83064059  0.52973049  0.96689419    -0.66400
O481        O  0.80281239  0.48564413  0.10864637    -0.85700
C482        C  0.83429392  0.51246508  0.97431392     0.86500
C483        C  0.81140280  0.51446289  0.90896078     1.08100
H484        H  0.81968255  0.48808630  0.04602181     0.39900
O485        O  0.81219231  0.49176170  0.03825002    -1.08400
O486        O  0.79393485  0.51800965  0.05771947    -0.65000
Ni487      Ni  0.80997452  0.51915338  0.05025681     1.26300
O488        O  0.82791018  0.49810880  0.98385741    -0.65300
O489        O  0.81157319  0.51507991  0.10387434    -0.77600
C490        C  0.81464170  0.55955787  0.04308792     0.85900
O491        O  0.80823520  0.54708175  0.05921213    -0.64700
Ni492      Ni  0.80208578  0.47281829  0.05963267     1.27400
Ni493      Ni  0.81173979  0.49489746  0.98425958     1.26100
H494        H  0.80040390  0.52380815  0.99052431     0.40400
O495        O  0.81906908  0.55265435  0.51124501    -0.79500
O496        O  0.81434068  0.46666587  0.47347315    -0.64200
O497        O  0.80627544  0.52007048  0.49516235    -1.10800
C498        C  0.81070154  0.49981652  0.62279345     1.07400
O499        O  0.80148103  0.45677836  0.51446832    -0.77400
O500        O  0.78983766  0.48254609  0.55906787    -0.65000
Ni501      Ni  0.81248707  0.54134304  0.46677650     1.34900
C502        C  0.78694202  0.50055068  0.56368182     0.86100
O503        O  0.80830570  0.49763621  0.42854278    -0.78000
O504        O  0.80616132  0.53072966  0.42122584    -0.88200
C505        C  0.80855525  0.45281805  0.48838266     0.85700
O506        O  0.82680115  0.53038711  0.45331047    -0.66400
O507        O  0.80726985  0.48306876  0.60991686    -0.85700
C508        C  0.83163118  0.51406525  0.46099499     0.86500
C509        C  0.80614113  0.51301247  0.40823713     1.08100
H510        H  0.82060889  0.48890401  0.54131599     0.39900
O511        O  0.81273092  0.49128230  0.53612543    -1.08400
O512        O  0.79382291  0.51495527  0.56024205    -0.65000
Ni513      Ni  0.80958663  0.51823613  0.54839682     1.26300
O514        O  0.82652398  0.49962329  0.47686796    -0.65300
O515        O  0.81286620  0.51472632  0.60138010    -0.77600
C516        C  0.81285370  0.55871328  0.53804577     0.85900
O517        O  0.80715275  0.54612318  0.55687984    -0.64700
Ni518      Ni  0.80453213  0.47088814  0.56111024     1.27400
Ni519      Ni  0.81061008  0.49386528  0.48248566     1.26100
H520        H  0.79820327  0.52087617  0.49202978     0.40400
O521        O  0.93271048  0.21155683  0.01460680    -0.79500
O522        O  0.93954644  0.29838721  0.97337184    -0.64200
O523        O  0.94521702  0.24379600  0.99400944    -1.10800
C524        C  0.93967248  0.26450953  0.12235956     1.07400
O525        O  0.95169328  0.30632143  0.01796074    -0.77400
O526        O  0.96058781  0.28210047  0.07135454    -0.65000
Ni527      Ni  0.93732185  0.22339192  0.96804911     1.34900
C528        C  0.96437098  0.26452878  0.06877984     0.86100
O529        O  0.94466349  0.26712633  0.92836905    -0.78000
O530        O  0.94145721  0.23434666  0.92004562    -0.88200
C531        C  0.94553761  0.31133726  0.99007413     0.85700
O532        O  0.92289777  0.23542765  0.96488012    -0.66400
O533        O  0.94102322  0.28226332  0.11014928    -0.85700
C534        C  0.91949367  0.25323210  0.96670887     0.86500
C535        C  0.94390972  0.25159898  0.90740464     1.08100
H536        H  0.93122694  0.27422941  0.03945942     0.39900
O537        O  0.93921358  0.27265895  0.03551177    -1.08400
O538        O  0.95855187  0.25000127  0.05645327    -0.65000
Ni539      Ni  0.94273298  0.24581138  0.04764644     1.26300
O540        O  0.92603045  0.26778344  0.97331822    -0.65300
O541        O  0.94010145  0.24908943  0.10111340    -0.77600
C542        C  0.93991502  0.20535236  0.03815847     0.85900
O543        O  0.94583063  0.21804156  0.05588746    -0.64700
Ni544      Ni  0.94613303  0.29358078  0.06310168     1.27400
Ni545      Ni  0.94199202  0.27069971  0.98195041     1.26100
H546        H  0.95315128  0.24162242  0.98945251     0.40400
O547        O  0.93191734  0.20925203  0.51355590    -0.79500
O548        O  0.93508720  0.29701256  0.47580442    -0.64200
O549        O  0.94383337  0.24319360  0.49420547    -1.10800
C550        C  0.94286736  0.26132421  0.62261478     1.07400
O551        O  0.94774443  0.30801709  0.51673433    -0.77400
O552        O  0.96087824  0.28099641  0.55090089    -0.65000
Ni553      Ni  0.93685162  0.22191540  0.46782111     1.34900
C554        C  0.96437498  0.26344203  0.55643772     0.86100
O555        O  0.94005833  0.26650475  0.42885135    -0.78000
O556        O  0.94113526  0.23333706  0.42043109    -0.88200
C557        C  0.94070300  0.31122061  0.49028936     0.85700
O558        O  0.92213777  0.23262262  0.46195464    -0.66400
O559        O  0.94593231  0.27816085  0.60947568    -0.85700
C560        C  0.91760184  0.24922188  0.46932967     0.86500
C561        C  0.94073962  0.25107027  0.40763378     1.08100
H562        H  0.93024841  0.27349115  0.54464762     0.39900
O563        O  0.93802553  0.27150581  0.53751672    -1.08400
O564        O  0.95780302  0.24845532  0.55619112    -0.65000
Ni565      Ni  0.94181807  0.24437558  0.54803654     1.26300
O566        O  0.92322454  0.26406750  0.48118978    -0.65300
O567        O  0.93963157  0.24696304  0.60162011    -0.77600
C568        C  0.93866851  0.20365289  0.53920309     0.85900
O569        O  0.94490863  0.21648096  0.55528397    -0.64700
Ni570      Ni  0.94648225  0.29184838  0.56160731     1.27400
Ni571      Ni  0.93912856  0.26967304  0.48337955     1.26100
H572        H  0.95181185  0.24239247  0.48878637     0.40400
O573        O  0.82133494  0.21239780  0.36011733    -0.79500
O574        O  0.81682891  0.29883888  0.40193484    -0.64200
O575        O  0.80907721  0.24527875  0.37944110    -1.10800
C576        C  0.81486809  0.26724667  0.25248105     1.07400
O577        O  0.80411622  0.30869287  0.36023686    -0.77400
O578        O  0.79381342  0.28466793  0.30828446    -0.65000
Ni579      Ni  0.81576608  0.22383655  0.40601648     1.34900
C580        C  0.79010656  0.26694706  0.30765522     0.86100
O581        O  0.81122658  0.26774154  0.44663093    -0.78000
O582        O  0.81077427  0.23438905  0.45344180    -0.88200
C583        C  0.81073406  0.31242872  0.38778072     0.85700
O584        O  0.83031502  0.23466547  0.41510071    -0.66400
O585        O  0.81274657  0.28455528  0.26563463    -0.85700
C586        C  0.83470423  0.25164562  0.41017158     0.86500
C587        C  0.81052845  0.25198743  0.46701216     1.08100
H588        H  0.82357034  0.27587644  0.33439808     0.39900
O589        O  0.81560530  0.27422463  0.33909877    -1.08400
O590        O  0.79622901  0.25202410  0.31593214    -0.65000
Ni591      Ni  0.81198374  0.24754963  0.32596160     1.26300
O592        O  0.82919360  0.26657950  0.39832247    -0.65300
O593        O  0.81504887  0.25145590  0.27284424    -0.77600
C594        C  0.81475509  0.20671245  0.33404355     0.85900
O595        O  0.80898952  0.21972132  0.31644652    -0.64700
Ni596      Ni  0.80855342  0.29568936  0.31372331     1.27400
Ni597      Ni  0.81331415  0.27162029  0.39256758     1.26100
H598        H  0.80104281  0.24415628  0.38328507     0.40400
O599        O  0.82268425  0.21116951  0.86422625    -0.79500
O600        O  0.81751940  0.30115884  0.89845979    -0.64200
O601        O  0.81136178  0.24607629  0.88226252    -1.10800
C602        C  0.81466274  0.26470629  0.75193910     1.07400
O603        O  0.80489989  0.30953004  0.85558596    -0.77400
O604        O  0.79472035  0.28343173  0.80728692    -1.03400
Ni605      Ni  0.81976157  0.22632468  0.90900039     1.34900
C606        C  0.79125543  0.26558966  0.80879318     0.86100
O607        O  0.81280157  0.27141152  0.94594309    -0.78000
O608        O  0.81781431  0.23969907  0.95649103    -0.88200
C609        C  0.81127791  0.31417520  0.88320290     0.85700
O610        O  0.83422117  0.23783401  0.90317228    -0.66400
O611        O  0.81322693  0.28250715  0.76360951    -0.85700
C612        C  0.83754715  0.25570696  0.90175260     0.86500
C613        C  0.81530033  0.25707517  0.96809728     1.08100
H614        H  0.82473264  0.27604087  0.83274361     0.39900
O615        O  0.81680248  0.27439260  0.83806759    -1.08400
O616        O  0.79731603  0.25114873  0.82019522    -0.65000
Ni617      Ni  0.81321916  0.24718728  0.82805472     1.26300
O618        O  0.83085304  0.27036454  0.89858716    -0.65300
O619        O  0.81519410  0.24959070  0.77398298    -0.77600
C620        C  0.81541132  0.20603544  0.83992706     0.85900
O621        O  0.80998166  0.21921426  0.82164044    -0.64700
Ni622      Ni  0.80935496  0.29497671  0.81078252     1.27400
Ni623      Ni  0.81477450  0.27340810  0.89193663     1.26100
H624        H  0.80346387  0.24392943  0.88807728     0.40400
O625        O  0.93463900  0.70869235  0.26106693    -0.79500
O626        O  0.93489488  0.79894107  0.22139093    -0.64200
O627        O  0.94358234  0.74520220  0.23943023    -1.10800
C628        C  0.93851868  0.76457079  0.36921616     1.07400
O629        O  0.94677951  0.80846303  0.26582115    -0.77400
O630        O  0.95670741  0.78585601  0.32024884    -0.65000
Ni631      Ni  0.93628187  0.72366396  0.21482171     1.34900
C632        C  0.96207348  0.76986589  0.31418441     0.86100
O633        O  0.94116137  0.76908477  0.17471054    -0.78000
O634        O  0.93753990  0.73655541  0.16639806    -0.88200
C635        C  0.94053670  0.81257914  0.23760200     0.85700
O636        O  0.92116077  0.73288367  0.21972920    -0.66400
O637        O  0.93711983  0.78230986  0.35709537    -0.85700
C638        C  0.91698603  0.75023159  0.21771029     0.86500
C639        C  0.93948025  0.75394644  0.15340254     1.08100
H640        H  0.92829870  0.77209506  0.28698137     0.39900
O641        O  0.93631608  0.77257927  0.28237847    -1.08400
O642        O  0.95756589  0.75491577  0.29801616    -0.65000
Ni643      Ni  0.94203072  0.74690547  0.29343129     1.26300
O644        O  0.92301271  0.76583201  0.22040921    -0.65300
O645        O  0.94044549  0.74974033  0.34744581    -0.77600
C646        C  0.94228894  0.70571714  0.28567100     0.85900
O647        O  0.94728501  0.72029315  0.30119135    -0.64700
Ni648      Ni  0.94172236  0.79465855  0.31047705     1.27400
Ni649      Ni  0.93878008  0.77159837  0.22861806     1.26100
H650        H  0.95149262  0.74429540  0.23310941     0.40400
O651        O  0.93110481  0.70652945  0.76257118    -0.79500
O652        O  0.93798901  0.79452241  0.71624219    -0.64200
O653        O  0.94340497  0.74016856  0.74088229    -1.10800
C654        C  0.94001811  0.76384893  0.86743504     1.07400
O655        O  0.95070662  0.80416227  0.75774768    -0.77400
O656        O  0.96079374  0.77886344  0.80690625    -0.65000
Ni657      Ni  0.93520093  0.71947907  0.71602263     1.34900
C658        C  0.96368593  0.76071984  0.80828969     0.86100
O659        O  0.94261854  0.76272561  0.67379203    -0.78000
O660        O  0.93853286  0.73037722  0.66686707    -0.88200
C661        C  0.94423436  0.80800941  0.72995028     0.85700
O662        O  0.92083257  0.73175297  0.71695476    -0.66400
O663        O  0.94268700  0.78083133  0.85388079    -0.85700
C664        C  0.91764615  0.74968325  0.71884080     0.86500
C665        C  0.94121728  0.74730507  0.65325633     1.08100
H666        H  0.93041063  0.77323940  0.78524780     0.39900
O667        O  0.93827918  0.77060238  0.78035507    -1.08400
O668        O  0.95690612  0.74643777  0.80246075    -0.65000
Ni669      Ni  0.94102371  0.74366967  0.79423108     1.26300
O670        O  0.92441622  0.76424205  0.72137437    -0.65300
O671        O  0.93863040  0.74826189  0.84726289    -0.77600
C672        C  0.93758242  0.70257575  0.79010751     0.85900
O673        O  0.94344782  0.71617838  0.80522718    -0.64700
Ni674      Ni  0.94642252  0.79141467  0.80470812     1.27400
Ni675      Ni  0.94044856  0.76710518  0.72706064     1.26100
H676        H  0.95131238  0.73763590  0.73632296     0.40400
O677        O  0.82044526  0.71366777  0.11521779    -0.79500
O678        O  0.81613865  0.79950269  0.14939395    -0.64200
O679        O  0.80778506  0.74603915  0.13227125    -1.10800
C680        C  0.80935442  0.76543373  0.00351301     1.07400
O681        O  0.80198806  0.80868533  0.11279210    -0.77400
O682        O  0.78983156  0.78218565  0.07138574    -0.65000
Ni683      Ni  0.81462647  0.72539557  0.16042736     1.34900
C684        C  0.78691268  0.76413063  0.06764598     0.86100
O685        O  0.81181325  0.76941516  0.19695764    -0.78000
O686        O  0.80929075  0.73665230  0.20703696    -0.88200
C687        C  0.80948493  0.81280207  0.13744217     0.85700
O688        O  0.82905401  0.73693627  0.16954657    -0.66400
O689        O  0.80610109  0.78212392  0.01698250    -0.85700
C690        C  0.83371287  0.75306716  0.15946043     0.86500
C691        C  0.81031315  0.75449817  0.21893061     1.08100
H692        H  0.82077281  0.77701003  0.08115084     0.39900
O693        O  0.81307425  0.77444645  0.08866966    -1.08400
O694        O  0.79393943  0.74990981  0.07005771    -0.65000
Ni695      Ni  0.80994895  0.74731919  0.07824482     1.26300
O696        O  0.82831105  0.76700396  0.14330273    -0.65300
O697        O  0.81202599  0.75053882  0.02439634    -0.77600
C698        C  0.81396388  0.70710784  0.08958543     0.85900
O699        O  0.80775084  0.71922223  0.07145202    -0.64700
Ni700      Ni  0.80422988  0.79445803  0.06580358     1.27400
Ni701      Ni  0.81235390  0.77239500  0.14253450     1.26100
H702        H  0.79978879  0.74524098  0.13740403     0.40400
O703        O  0.82160038  0.71085624  0.61100589    -0.79500
O704        O  0.81667260  0.79866047  0.65384527    -0.64200
O705        O  0.81011190  0.74444824  0.63115702    -1.10800
C706        C  0.81583261  0.76667992  0.50345822     1.07400
O707        O  0.80450767  0.80737019  0.60999503    -0.77400
O708        O  0.79556411  0.78411562  0.55629924    -0.65000
Ni709      Ni  0.81716998  0.72324879  0.65754357     1.34900
C710        C  0.79122712  0.76696608  0.55909396     0.86100
O711        O  0.81108449  0.76746595  0.69719446    -0.78000
O712        O  0.81321328  0.73445779  0.70600643    -0.88200
C713        C  0.81038826  0.81174600  0.63886552     0.85700
O714        O  0.83187074  0.73419990  0.66126050    -0.66400
O715        O  0.81506627  0.78414847  0.51738786    -0.85700
C716        C  0.83571533  0.75176734  0.65994453     0.86500
C717        C  0.81144864  0.75205205  0.71835965     1.08100
H718        H  0.82469828  0.77462240  0.58695858     0.39900
O719        O  0.81667217  0.77339615  0.59082916    -1.08400
O720        O  0.79682561  0.75186047  0.56982865    -0.65000
Ni721      Ni  0.81265518  0.74689107  0.57742497     1.26300
O722        O  0.82964528  0.76688821  0.65295990    -0.65300
O723        O  0.81514847  0.75082808  0.52361667    -0.77600
C724        C  0.81456946  0.70591707  0.58565002     0.85900
O725        O  0.80919748  0.71937879  0.56796648    -0.64700
Ni726      Ni  0.81009587  0.79498868  0.56464235     1.27400
Ni727      Ni  0.81382105  0.77109802  0.64406759     1.26100
H728        H  0.80211551  0.74285903  0.63546820     0.40400
O729        O  0.93035990  0.05276918  0.10472802    -0.79500
O730        O  0.93403976  0.96632968  0.15063252    -0.64200
O731        O  0.94179647  0.01982479  0.12742411    -1.10800
C732        C  0.93636052  0.99741985  0.99974148     1.07400
O733        O  0.94643798  0.95648695  0.10806423    -0.77400
O734        O  0.95649957  0.97921893  0.05465429    -0.65000
Ni735      Ni  0.93481883  0.04155238  0.15209042     1.34900
C736        C  0.96089001  0.99639708  0.05638896     0.86100
O737        O  0.93932065  0.99777650  0.19468332    -0.78000
O738        O  0.93866479  0.03116997  0.20086166    -0.88200
C739        C  0.94002318  0.95269531  0.13601713     0.85700
O740        O  0.92006203  0.03111079  0.15775165    -0.66400
O741        O  0.93732214  0.97991644  0.01351087    -0.85700
C742        C  0.91580729  0.01386675  0.15568713     0.86500
C743        C  0.93909838  0.01365952  0.21479889     1.08100
H744        H  0.92721704  0.98999015  0.08226230     0.39900
O745        O  0.93520752  0.99096351  0.08706916    -1.08400
O746        O  0.95534822  0.01170686  0.06644426    -0.65000
Ni747      Ni  0.93955262  0.01723689  0.07356779     1.26300
O748        O  0.92154986  0.99860064  0.14689360    -0.65300
O749        O  0.93710532  0.01325394  0.01986481    -0.77600
C750        C  0.93764638  0.05800570  0.08057101     0.85900
O751        O  0.94332465  0.04461237  0.06391345    -0.64700
Ni752      Ni  0.94168991  0.96901646  0.06166585     1.27400
Ni753      Ni  0.93744128  0.99360278  0.14077505     1.26100
H754        H  0.94977318  0.02100556  0.13237665     0.40400
O755        O  0.92932999  0.05144098  0.60854264    -0.79500
O756        O  0.93410416  0.96105940  0.64426414    -0.64200
O757        O  0.94002375  0.01619525  0.62794613    -1.10800
C758        C  0.93421353  0.99824721  0.49798313     1.07400
O759        O  0.94543598  0.95281568  0.59721904    -0.77400
O760        O  0.95427464  0.97801579  0.54500577    -0.65000
Ni761      Ni  0.93152792  0.03600676  0.65349802     1.34900
C762        C  0.95885563  0.99468042  0.55196614     0.86100
O763        O  0.93916868  0.99123395  0.69181249    -0.78000
O764        O  0.93289772  0.02238260  0.70100041    -0.88200
C765        C  0.94004464  0.94817188  0.62714562     0.85700
O766        O  0.91720380  0.02457155  0.64453473    -0.66400
O767        O  0.93424699  0.98013024  0.50893064    -0.85700
C768        C  0.91397486  0.00666891  0.64641862     0.86500
C769        C  0.93606324  0.00549570  0.71348915     1.08100
H770        H  0.92563328  0.98767859  0.58046050     0.39900
O771        O  0.93368021  0.98829529  0.58428292    -1.08400
O772        O  0.95367755  0.00905755  0.56756568    -0.65000
Ni773      Ni  0.93802067  0.01501638  0.57411224     1.26300
O774        O  0.92071697  0.99202732  0.64684511    -0.65300
O775        O  0.93582155  0.01295011  0.52029162    -0.77600
C776        C  0.93690323  0.05602956  0.58489362     0.85900
O777        O  0.94221013  0.04245522  0.56742474    -0.64700
Ni778      Ni  0.93963423  0.96734846  0.55422738     1.27400
Ni779      Ni  0.93661911  0.98895013  0.63783007     1.26100
H780        H  0.94792214  0.01845712  0.63380206     0.40400
O781        O  0.81917453  0.05214903  0.25995647    -0.79500
O782        O  0.81583010  0.96507237  0.22884687    -0.64200
O783        O  0.80691728  0.01864717  0.24401273    -1.10800
C784        C  0.80767860  0.00098804  0.37267018     1.07400
O785        O  0.80163709  0.95574136  0.26548052    -0.77400
O786        O  0.78888522  0.98292367  0.30165728    -0.65000
Ni787      Ni  0.81350069  0.03939521  0.21537656     1.34900
C788        C  0.78606828  0.00079472  0.30782384     0.86100
O789        O  0.81120469  0.99473688  0.17991449    -0.78000
O790        O  0.80829180  0.02738892  0.16929256    -0.88200
C791        C  0.80922040  0.95173901  0.24119231     0.85700
O792        O  0.82804141  0.02830838  0.20704330    -0.66400
O793        O  0.80411745  0.98436654  0.35970534    -0.85700
C794        C  0.83292102  0.01239483  0.21708455     0.86500
C795        C  0.80930999  0.00947299  0.15783484     1.08100
H796        H  0.82001246  0.98815571  0.29645077     0.39900
O797        O  0.81235641  0.99069176  0.28851264    -1.08400
O798        O  0.79311472  0.01506331  0.30686093    -0.65000
Ni799      Ni  0.80910060  0.01793274  0.29796562     1.26300
O800        O  0.82768131  0.99827104  0.23343407    -0.65300
O801        O  0.81121367  0.01520634  0.35162819    -0.77600
C802        C  0.81267823  0.05845405  0.28576208     0.85900
O803        O  0.80668683  0.04609599  0.30420356    -0.64700
Ni804      Ni  0.80315702  0.97101892  0.31144310     1.27400
Ni805      Ni  0.81177038  0.99226128  0.23453607     1.26100
H806        H  0.79891310  0.01909973  0.23892040     0.40400
O807        O  0.81951697  0.05360970  0.76647742    -0.79500
O808        O  0.81330353  0.96621539  0.72166743    -0.64200
O809        O  0.80712129  0.02049683  0.74490558    -1.10800
C810        C  0.81101401  0.99764420  0.87253972     1.07400
O811        O  0.80068626  0.95726070  0.76386555    -0.77400
O812        O  0.79098956  0.98104876  0.81572525    -0.65000
Ni813      Ni  0.81478578  0.04149541  0.71974640     1.34900
C814        C  0.78718848  0.99863468  0.81423911     0.86100
O815        O  0.80829155  0.99787869  0.67820765    -0.78000
O816        O  0.81068662  0.03085570  0.67109288    -0.88200
C817        C  0.80721371  0.95284411  0.73666581     0.85700
O818        O  0.82924730  0.02973151  0.71593139    -0.66400
O819        O  0.80967056  0.98026437  0.85867439    -0.85700
C820        C  0.83287595  0.01208115  0.71832011     0.86500
C821        C  0.80871765  0.01355104  0.65767342     1.08100
H822        H  0.82072250  0.98915912  0.79003779     0.39900
O823        O  0.81277918  0.99093109  0.78523630    -1.08400
O824        O  0.79327920  0.01355352  0.80541332    -0.65000
Ni825      Ni  0.80925089  0.01765292  0.79853944     1.26300
O826        O  0.82650341  0.99734313  0.72524940    -0.65300
O827        O  0.81131935  0.01343804  0.85221917    -0.77600
C828        C  0.81291967  0.05845265  0.79320498     0.85900
O829        O  0.80652460  0.04543688  0.80817318    -0.64700
Ni830      Ni  0.80549248  0.96958257  0.81033756     1.27400
Ni831      Ni  0.81053496  0.99374996  0.73169733     1.26100
H832        H  0.79914741  0.02250442  0.73994862     0.40400
O833        O  0.19529077  0.05849306  0.22964113    -0.79500
O834        O  0.19163752  0.97059763  0.18562005    -0.64200
O835        O  0.18363689  0.02456466  0.20619390    -1.10800
C836        C  0.18395255  0.00260262  0.33434863     1.07400
O837        O  0.17786166  0.96141980  0.22299236    -0.77400
O838        O  0.16552182  0.98576892  0.26562325    -0.65000
Ni839      Ni  0.19133751  0.04601741  0.18229034     1.34900
C840        C  0.16220301  0.00366546  0.26569603     0.86100
O841        O  0.18713058  0.00203489  0.14028979    -0.78000
O842        O  0.18794333  0.03532392  0.13305369    -0.88200
C843        C  0.18602934  0.95691659  0.20163881     0.85700
O844        O  0.20607490  0.03478577  0.17946261    -0.66400
O845        O  0.18163849  0.98557905  0.32035955    -0.85700
C846        C  0.20987179  0.01730614  0.18390011     0.86500
C847        C  0.18734564  0.01770115  0.11968635     1.08100
H848        H  0.19627055  0.99296009  0.25577950     0.39900
O849        O  0.18852799  0.99511465  0.24835844    -1.08400
O850        O  0.16887672  0.01839016  0.26380356    -0.65000
Ni851      Ni  0.18489185  0.02190847  0.26020206     1.26300
O852        O  0.20367646  0.00268471  0.19300324    -0.65300
O853        O  0.18607623  0.01791868  0.31404282    -0.77600
C854        C  0.18840909  0.06276095  0.25599207     0.85900
O855        O  0.18195990  0.04942943  0.26925653    -0.64700
Ni856      Ni  0.18001712  0.97422758  0.27077007     1.27400
Ni857      Ni  0.18778888  0.99796999  0.19423588     1.26100
H858        H  0.17578369  0.02605086  0.19958007     0.40400
O859        O  0.19369108  0.05940720  0.72286837    -0.79500
O860        O  0.19373990  0.97070458  0.68558416    -0.64200
O861        O  0.18337859  0.02336928  0.70599743    -1.10800
C862        C  0.18977361  0.00359750  0.83434194     1.07400
O863        O  0.18138346  0.96103516  0.72755939    -0.77400
O864        O  0.17025756  0.98257419  0.77947368    -0.65000
Ni865      Ni  0.18863502  0.04557417  0.67811868     1.34900
C866        C  0.16535709  0.99925895  0.77680592     0.86100
O867        O  0.18601273  0.00028221  0.64043582    -0.78000
O868        O  0.18388936  0.03328997  0.63157060    -0.88200
C869        C  0.18875194  0.95668735  0.70295770     0.85700
O870        O  0.20370564  0.03711769  0.66828139    -0.66400
O871        O  0.18919994  0.98588062  0.82146084    -0.85700
C872        C  0.20893860  0.02079424  0.67215978     0.86500
C873        C  0.18412307  0.01540116  0.61932028     1.08100
H874        H  0.19942982  0.99599272  0.75194230     0.39900
O875        O  0.19139429  0.99615740  0.74750728    -1.08400
O876        O  0.17052102  0.01521842  0.76782086    -0.65000
Ni877      Ni  0.18621492  0.02207419  0.75952731     1.26300
O878        O  0.20425773  0.00527612  0.68561557    -0.65300
O879        O  0.18902333  0.01913827  0.81334552    -0.77600
C880        C  0.18770310  0.06315373  0.75193673     0.85900
O881        O  0.18210143  0.04930259  0.76781801    -0.64700
Ni882      Ni  0.18544573  0.97401227  0.77386031     1.27400
Ni883      Ni  0.18879856  0.99757793  0.69391203     1.26100
H884        H  0.17532728  0.02308572  0.70203716     0.40400
O885        O  0.04951346  0.05818867  0.38654413    -0.79500
O886        O  0.05302166  0.97044014  0.43401150    -0.64200
O887        O  0.06115470  0.02433912  0.40992064    -1.10800
C888        C  0.06047289  0.00018380  0.28351900     1.07400
O889        O  0.06748142  0.96262552  0.39903330    -0.77400
O890        O  0.07944217  0.98573593  0.35344242    -0.65000
Ni891      Ni  0.05417967  0.04641594  0.43382116     1.34900
C892        C  0.08237206  0.00370088  0.34959975     0.86100
O893        O  0.05728778  0.00299997  0.47782836    -0.78000
O894        O  0.05830631  0.03634299  0.48280115    -0.88200
C895        C  0.05937550  0.95715443  0.41984494     0.85700
O896        O  0.03958100  0.03534651  0.44117526    -0.66400
O897        O  0.06331041  0.98365029  0.29877514    -0.85700
C898        C  0.03539352  0.01804942  0.43794061     0.86500
C899        C  0.05779187  0.01899725  0.49752689     1.08100
H900        H  0.04837523  0.99160029  0.36252641     0.39900
O901        O  0.05610767  0.99433732  0.36987719    -1.08400
O902        O  0.07545185  0.01805467  0.35020093    -0.65000
Ni903      Ni  0.05944561  0.02101595  0.35600617     1.26300
O904        O  0.04086187  0.00324339  0.42513741    -0.65300
O905        O  0.05783820  0.01578031  0.30249679    -0.77600
C906        C  0.05635192  0.06240368  0.36001431     0.85900
O907        O  0.06219982  0.04864547  0.34513156    -0.64700
Ni908      Ni  0.06507500  0.97356449  0.34962760     1.27400
Ni909      Ni  0.05676695  0.99800171  0.42388127     1.26100
H910        H  0.06909540  0.02550714  0.41556014     0.40400
O911        O  0.05339034  0.05959965  0.89304481    -0.79500
O912        O  0.05658304  0.96862550  0.92954395    -0.64200
O913        O  0.06365511  0.02329454  0.91194109    -1.10800
C914        C  0.05624118  0.00518973  0.78243597     1.07400
O915        O  0.06761194  0.96163665  0.88166541    -0.77400
O916        O  0.07613517  0.98423037  0.82685806    -0.65000
Ni917      Ni  0.05601974  0.04387806  0.93834569     1.34900
C918        C  0.08168204  0.99955877  0.83635805     0.86100
O919        O  0.06354374  0.99867535  0.97551379    -0.78000
O920        O  0.05839926  0.03042291  0.98627643    -0.88200
C921        C  0.06139380  0.95582709  0.90860748     0.85700
O922        O  0.04104759  0.03340809  0.93492571    -0.66400
O923        O  0.05550524  0.98720118  0.79374999    -0.85700
C924        C  0.03779219  0.01559965  0.93964405     0.86500
C925        C  0.06169295  0.01333180  0.99787002     1.08100
H926        H  0.04803413  0.99603587  0.86680805     0.39900
O927        O  0.05613578  0.99590360  0.86937458    -1.08400
O928        O  0.07700087  0.01449049  0.85210472    -0.65000
Ni929      Ni  0.06132004  0.02184171  0.85838751     1.26300
O930        O  0.04432093  0.00076605  0.93591031    -0.65300
O931        O  0.05889581  0.01963849  0.80432318    -0.77600
C932        C  0.05982605  0.06258527  0.86460071     0.85900
O933        O  0.06576335  0.04864672  0.85097119    -0.64700
Ni934      Ni  0.06138858  0.97475787  0.83855358     1.27400
Ni935      Ni  0.05984342  0.99638982  0.92257103     1.26100
H936        H  0.07159623  0.02499691  0.91702917     0.40400
O937        O  0.05752460  0.20539966  0.22598113    -0.79500
O938        O  0.05684893  0.29450431  0.18571318    -0.64200
O939        O  0.06776092  0.24200240  0.20617475    -1.10800
C940        C  0.06649089  0.26223245  0.33354373     1.07400
O941        O  0.06932779  0.30744466  0.22514907    -0.77400
O942        O  0.08369462  0.28200855  0.25829954    -0.65000
Ni943      Ni  0.06172798  0.21956499  0.18031179     1.34900
C944        C  0.08779634  0.26479906  0.26325411     0.86100
O945        O  0.06325327  0.26454595  0.13991722    -0.78000
O946        O  0.06527831  0.23155363  0.13226003    -0.88200
C947        C  0.06138632  0.30949051  0.20139991     0.85700
O948        O  0.04657821  0.22836226  0.17501506    -0.66400
O949        O  0.06949057  0.27885294  0.31936469    -0.85700
C950        C  0.04156822  0.24477463  0.18032878     0.86500
C951        C  0.06438722  0.24916545  0.11896242     1.08100
H952        H  0.05329540  0.27190910  0.25527857     0.39900
O953        O  0.06110749  0.27045309  0.24809800    -1.08400
O954        O  0.08161761  0.24938338  0.26652299    -0.65000
Ni955      Ni  0.06567550  0.24395721  0.25994647     1.26300
O956        O  0.04660402  0.26030903  0.19194948    -0.65300
O957        O  0.06346995  0.24743221  0.31331440    -0.77600
C958        C  0.06315322  0.20273266  0.25630098     0.85900
O959        O  0.06929559  0.21656168  0.26955975    -0.64700
Ni960      Ni  0.06916430  0.29182987  0.27077483     1.27400
Ni961      Ni  0.06218509  0.26793121  0.19413259     1.26100
H962        H  0.07573694  0.24205106  0.20077114     0.40400
O963        O  0.05592614  0.20329141  0.72122187    -0.79500
O964        O  0.06004502  0.29385016  0.68459373    -0.64200
O965        O  0.06668170  0.23927364  0.70482244    -1.10800
C966        C  0.06007433  0.25989297  0.83324658     1.07400
O967        O  0.07190134  0.30132367  0.72995962    -0.77400
O968        O  0.08025631  0.27791518  0.78532910    -0.65000
Ni969      Ni  0.06004453  0.21822655  0.67667233     1.34900
C970        C  0.08477345  0.26100646  0.78054325     0.86100
O971        O  0.06677954  0.26359625  0.64027595    -0.78000
O972        O  0.06377866  0.23102809  0.62940409    -0.88200
C973        C  0.06579678  0.30678827  0.70233739     0.85700
O974        O  0.04512446  0.22847861  0.67383790    -0.66400
O975        O  0.06013847  0.27766929  0.82056734    -0.85700
C976        C  0.04149154  0.24618284  0.67203441     0.86500
C977        C  0.06614943  0.24860625  0.61815873     1.08100
H978        H  0.05145406  0.26846587  0.74864248     0.39900
O979        O  0.05953019  0.26756258  0.74589251    -1.08400
O980        O  0.07949695  0.24632124  0.76646991    -0.65000
Ni981      Ni  0.06375485  0.24114545  0.75825068     1.26300
O982        O  0.04749846  0.26137322  0.67982126    -0.65300
O983        O  0.06124881  0.24445138  0.81222934    -0.77600
C984        C  0.06180464  0.20000039  0.75075365     0.85900
O985        O  0.06722470  0.21386586  0.76706074    -0.64700
Ni986      Ni  0.06578497  0.28883992  0.77436112     1.27400
Ni987      Ni  0.06307007  0.26613841  0.69291203     1.26100
H988        H  0.07470195  0.23785569  0.70111602     0.40400
O989        O  0.19774916  0.20452103  0.39299298    -0.79500
O990        O  0.19529586  0.29591366  0.42938867    -0.64200
O991        O  0.18778147  0.24129160  0.41110340    -1.10800
C992        C  0.19500428  0.26011239  0.28228590     1.07400
O993        O  0.18357498  0.30307013  0.38330560    -0.77400
O994        O  0.17502066  0.28000424  0.32750559    -0.65000
Ni995      Ni  0.19448260  0.21997292  0.43789851     1.34900
C996        C  0.16997434  0.26369844  0.33379858     0.86100
O997        O  0.18853147  0.26579993  0.47566270    -0.78000
O998        O  0.19159748  0.23310219  0.48502508    -0.88200
C999        C  0.18974040  0.30878667  0.41061274     0.85700
O1000       O  0.20955743  0.22981540  0.43895997    -0.66400
O1001       O  0.19535738  0.27800864  0.29434178    -0.85700
C1002       C  0.21345231  0.24733121  0.44262809     0.86500
C1003       C  0.18963843  0.25061284  0.49727791     1.08100
H1004       H  0.20345067  0.26894838  0.36614967     0.39900
O1005       O  0.19536548  0.26875440  0.36914288    -1.08400
O1006       O  0.17472985  0.24910417  0.35009969    -0.65000
Ni1007     Ni  0.19038006  0.24265444  0.35766089     1.26300
O1008       O  0.20764332  0.26285681  0.43532389    -0.65300
O1009       O  0.19295396  0.24515206  0.30370669    -0.77600
C1010       C  0.19130688  0.20154927  0.36466643     0.85900
O1011       O  0.18596761  0.21580828  0.34957990    -0.64700
Ni1012     Ni  0.18965298  0.29003142  0.33960365     1.27400
Ni1013     Ni  0.19198138  0.26805944  0.42239202     1.26100
H1014       H  0.17977567  0.24019199  0.41556357     0.40400
O1015       O  0.19838498  0.20533347  0.88814632    -0.79500
O1016       O  0.19450872  0.29624623  0.93042003    -0.64200
O1017       O  0.18802502  0.24117160  0.91124464    -1.10800
C1018       C  0.19074901  0.26285238  0.78207547     1.07400
O1019       O  0.18124354  0.30313448  0.88949817    -0.77400
O1020       O  0.17147122  0.28009218  0.83726237    -0.65000
Ni1021     Ni  0.19658502  0.22056993  0.93429713     1.34900
C1022       C  0.16720553  0.26314730  0.84373029     0.86100
O1023       O  0.18984335  0.26501859  0.97663390    -0.78000
O1024       O  0.19540527  0.23327824  0.98291317    -0.88200
C1025       C  0.18828008  0.30899863  0.91403502     0.85700
O1026       O  0.21115217  0.23198419  0.92735172    -0.66400
O1027       O  0.19041199  0.28057584  0.79495737    -0.85700
C1028       C  0.21433212  0.24987071  0.93173773     0.86500
C1029       C  0.19272797  0.25010947  0.99697170     1.08100
H1030       H  0.20132638  0.27136244  0.86307891     0.39900
O1031       O  0.19338349  0.27015203  0.86875028    -1.08400
O1032       O  0.17305613  0.24847408  0.85502341    -0.65000
Ni1033     Ni  0.18905538  0.24365285  0.85724347     1.26300
O1034       O  0.20756513  0.26450976  0.92968614    -0.65300
O1035       O  0.19010675  0.24734662  0.80307282    -0.77600
C1036       C  0.19132589  0.20225203  0.86159038     0.85900
O1037       O  0.18537108  0.21636400  0.84861257    -0.64700
Ni1038     Ni  0.18608378  0.29132894  0.84298903     1.27400
Ni1039     Ni  0.19159748  0.26828621  0.92270844     1.26100
H1040       H  0.18026341  0.23893655  0.91830507     0.40400
O1041       O  0.05214135  0.70757128  0.48863444    -0.79500
O1042       O  0.05828890  0.79568521  0.43510428    -0.64200
O1043       O  0.06401101  0.74105672  0.46111890    -1.10800
C1044       C  0.06210282  0.76614128  0.58835247     1.07400
O1045       O  0.07112447  0.80349958  0.47638173    -0.77400
O1046       O  0.08122165  0.78159946  0.52860334    -0.65000
Ni1047     Ni  0.05508452  0.72020566  0.44019931     1.34900
C1048       C  0.08507760  0.76416088  0.52499379     0.86100
O1049       O  0.06292878  0.76248977  0.39280918    -0.78000
O1050       O  0.05743443  0.73048065  0.38978762    -0.88200
C1051       C  0.06367306  0.80900446  0.45314358     0.85700
O1052       O  0.04070131  0.73285414  0.44231550    -0.66400
O1053       O  0.06293973  0.78349204  0.57390361    -0.85700
C1054       C  0.03802563  0.75095662  0.43765675     0.86500
C1055       C  0.06053803  0.74669960  0.37399009     1.08100
H1056       H  0.05119994  0.77339525  0.50549076     0.39900
O1057       O  0.05912182  0.77157548  0.50027764    -1.08400
O1058       O  0.07893075  0.74915969  0.51747194    -0.65000
Ni1059     Ni  0.06285327  0.74516297  0.51473827     1.26300
O1060       O  0.04512413  0.76502361  0.43958670    -0.65300
O1061       O  0.06177622  0.75027228  0.56838266    -0.77600
C1062       C  0.05907132  0.70437736  0.51555480     0.85900
O1063       O  0.06581823  0.71790358  0.52623604    -0.64700
Ni1064     Ni  0.06672555  0.79308766  0.52430196     1.27400
Ni1065     Ni  0.06104178  0.76790795  0.44629560     1.26100
H1066       H  0.07174767  0.73813367  0.45471432     0.40400
O1067       O  0.05553480  0.70437751  0.96848737    -0.79500
O1068       O  0.05565961  0.79533609  0.94219906    -0.64200
O1069       O  0.06551537  0.74207927  0.95957442    -1.10800
C1070       C  0.05971379  0.75539694  0.08809563     1.07400
O1071       O  0.06524797  0.80691747  0.99180138    -0.77400
O1072       O  0.07883815  0.77984729  0.02301610    -0.65000
Ni1073     Ni  0.06123048  0.72061490  0.92753052     1.34900
C1074       C  0.08281681  0.76245755  0.02625264     0.86100
O1075       O  0.06357259  0.76710319  0.89575782    -0.78000
O1076       O  0.06658383  0.73464930  0.88353777    -0.88200
C1077       C  0.06020803  0.80956940  0.96041096     0.85700
O1078       O  0.04628540  0.72920227  0.91698682    -0.66400
O1079       O  0.06319633  0.77256069  0.07831757    -0.85700
C1080       C  0.04073139  0.74505899  0.92251837     0.86500
C1081       C  0.06585031  0.75277913  0.87321211     1.08100
H1082       H  0.04878612  0.76958236  0.00606091     0.39900
O1083       O  0.05683443  0.76846817  0.00249309    -1.08400
O1084       O  0.07658024  0.74707713  0.02610253    -0.65000
Ni1085     Ni  0.06117746  0.74161082  0.01183852     1.26300
O1086       O  0.04499399  0.76046181  0.93804555    -0.65300
O1087       O  0.05677314  0.74217630  0.06422981    -0.77600
C1088       C  0.06031355  0.70071778  0.00001973     0.85900
O1089       O  0.06513009  0.71445853  0.01838837    -0.64700
Ni1090     Ni  0.06389338  0.78838968  0.03285046     1.27400
Ni1091     Ni  0.06027785  0.76826911  0.94924109     1.26100
H1092       H  0.07363712  0.74259910  0.95813323     0.40400
O1093       O  0.19608109  0.70693715  0.14081729    -0.79500
O1094       O  0.19249468  0.79635302  0.17770835    -0.64200
O1095       O  0.18455042  0.74214637  0.15754205    -1.10800
C1096       C  0.18760019  0.76193190  0.02907439     1.07400
O1097       O  0.17951306  0.80525119  0.13690628    -0.77400
O1098       O  0.16797444  0.77981161  0.09502345    -0.65000
Ni1099     Ni  0.19090378  0.72067815  0.18540412     1.34900
C1100       C  0.16468399  0.76193750  0.09347539     0.86100
O1101       O  0.18638290  0.76565172  0.22302844    -0.78000
O1102       O  0.18600708  0.73246058  0.23197825    -0.88200
C1103       C  0.18671790  0.80991360  0.16185271     0.85700
O1104       O  0.20564327  0.73132959  0.19382416    -0.66400
O1105       O  0.18476266  0.77888497  0.04220798    -0.85700
C1106       C  0.20990539  0.74858030  0.19040159     0.86500
C1107       C  0.18541955  0.75028989  0.24419184     1.08100
H1108       H  0.19871515  0.77300940  0.11026302     0.39900
O1109       O  0.19080724  0.77084200  0.11567953    -1.08400
O1110       O  0.17135325  0.74723664  0.09529296    -0.65000
Ni1111     Ni  0.18726110  0.74386281  0.10400866     1.26300
O1112       O  0.20448678  0.76335265  0.17700402    -0.65300
O1113       O  0.18979954  0.74700025  0.05033525    -0.77600
C1114       C  0.18984546  0.70276487  0.11258897     0.85900
O1115       O  0.18435234  0.71632109  0.09578823    -0.64700
Ni1116     Ni  0.18252846  0.79121970  0.09073278     1.27400
Ni1117     Ni  0.18871378  0.76879245  0.16941855     1.26100
H1118       H  0.17652113  0.74119897  0.16160246     0.40400
O1119       O  0.19734007  0.70683894  0.63788113    -0.79500
O1120       O  0.19760517  0.79635478  0.67528894    -0.64200
O1121       O  0.18704576  0.74331629  0.65634354    -1.10800
C1122       C  0.18878902  0.76279567  0.52817430     1.07400
O1123       O  0.18395786  0.80584628  0.63778936    -0.77400
O1124       O  0.17074448  0.78231108  0.59725336    -0.65000
Ni1125     Ni  0.19253850  0.72093100  0.68298514     1.34900
C1126       C  0.16695729  0.76475097  0.59511625     0.86100
O1127       O  0.19099628  0.76608394  0.72217787    -0.78000
O1128       O  0.18814184  0.73314290  0.72995091    -0.88200
C1129       C  0.19223213  0.81025373  0.65875020     0.85700
O1130       O  0.20752666  0.72986107  0.69170781    -0.66400
O1131       O  0.18658639  0.77998255  0.54163212    -0.85700
C1132       C  0.21282520  0.74611923  0.68761720     0.86500
C1133       C  0.18900640  0.75083482  0.74296350     1.08100
H1134       H  0.20162726  0.77269930  0.60682233     0.39900
O1135       O  0.19376669  0.77123009  0.61380575    -1.08400
O1136       O  0.17330683  0.74957039  0.59576322    -0.65000
Ni1137     Ni  0.18920331  0.74476579  0.60262178     1.26300
O1138       O  0.20828138  0.76152977  0.67290437    -0.65300
O1139       O  0.19120179  0.74779839  0.54891151    -0.77600
C1140       C  0.19143282  0.70369888  0.60830058     0.85900
O1141       O  0.18552008  0.71753608  0.59425071    -0.64700
Ni1142     Ni  0.18560189  0.79229754  0.59060150     1.27400
Ni1143     Ni  0.19258769  0.76924109  0.66800720     1.26100
H1144       H  0.17904733  0.74358589  0.66139300     0.40400
O1145       O  0.05000608  0.55618104  0.12814189    -0.79500
O1146       O  0.05500921  0.46922814  0.17680206    -0.64200
O1147       O  0.06224099  0.52309656  0.15227336    -1.10800
C1148       C  0.06110641  0.49930426  0.02565623     1.07400
O1149       O  0.06853421  0.45934064  0.13873847    -0.77400
O1150       O  0.08028691  0.48415705  0.09464237    -0.65000
Ni1151     Ni  0.05455983  0.54467872  0.17573254     1.34900
C1152       C  0.08338588  0.50213539  0.09194108     0.86100
O1153       O  0.06002784  0.50149594  0.22013717    -0.78000
O1154       O  0.05863974  0.53487426  0.22492973    -0.88200
C1155       C  0.06085777  0.45535619  0.16251329     0.85700
O1156       O  0.03995090  0.53313283  0.18223521    -0.66400
O1157       O  0.06394063  0.48274837  0.04057690    -0.85700
C1158       C  0.03648611  0.51527129  0.18162297     0.86500
C1159       C  0.05971218  0.51759256  0.23957342     1.08100
H1160       H  0.04933929  0.49019684  0.10636081     0.39900
O1161       O  0.05715243  0.49282040  0.11260215    -1.08400
O1162       O  0.07650580  0.51659259  0.09276919    -0.65000
Ni1163     Ni  0.06043541  0.51957775  0.09858754     1.26300
O1164       O  0.04257915  0.50074158  0.17117100    -0.65300
O1165       O  0.05863692  0.51476504  0.04507057    -0.77600
C1166       C  0.05687336  0.56050126  0.10176084     0.85900
O1167       O  0.06307955  0.54702733  0.08782014    -0.64700
Ni1168     Ni  0.06588616  0.47199177  0.09068160     1.27400
Ni1169     Ni  0.05851456  0.49657312  0.16638417     1.26100
H1170       H  0.07014199  0.52497550  0.15775475     0.40400
O1171       O  0.05188865  0.55773592  0.63945191    -0.79500
O1172       O  0.05715818  0.46677215  0.66912623    -0.64200
O1173       O  0.06317993  0.52227017  0.65493332    -1.10800
C1174       C  0.05723073  0.50567248  0.52422627     1.07400
O1175       O  0.06890893  0.46100699  0.62242227    -0.77400
O1176       O  0.07737090  0.48612780  0.57080133    -0.65000
Ni1177     Ni  0.05596381  0.54232973  0.68353658     1.34900
C1178       C  0.08195142  0.50259282  0.57922557     0.86100
O1179       O  0.06313110  0.49645226  0.71738430    -0.78000
O1180       O  0.05957508  0.52873720  0.72985286    -0.88200
C1181       C  0.06281106  0.45454325  0.64921317     0.85700
O1182       O  0.04127490  0.53109512  0.68487915    -0.66400
O1183       O  0.05728084  0.48754484  0.53487965    -0.85700
C1184       C  0.03782575  0.51324183  0.68600079     0.86500
C1185       C  0.06209732  0.51110184  0.74034657     1.08100
H1186       H  0.04844263  0.49425691  0.60732528     0.39900
O1187       O  0.05649798  0.49510452  0.61054884    -1.08400
O1188       O  0.07655727  0.51686474  0.59429477    -0.65000
Ni1189     Ni  0.06074820  0.52197397  0.60124847     1.26300
O1190       O  0.04404903  0.49854507  0.67686095    -0.65300
O1191       O  0.05856547  0.52038631  0.54690335    -0.77600
C1192       C  0.05848604  0.56280563  0.61270933     0.85900
O1193       O  0.06431351  0.54966544  0.59578913    -0.64700
Ni1194     Ni  0.06285134  0.47487670  0.57963720     1.27400
Ni1195     Ni  0.05978337  0.49497571  0.66399748     1.26100
H1196       H  0.07114007  0.52395474  0.65970604     0.40400
O1197       O  0.19398990  0.56017849  0.47040905    -0.79500
O1198       O  0.19209090  0.46939130  0.44343074    -0.64200
O1199       O  0.18330543  0.52354173  0.45905573    -1.10800
C1200       C  0.19039822  0.50681406  0.58846528     1.07400
O1201       O  0.17982904  0.46187920  0.48753421    -0.77400
O1202       O  0.16974497  0.48611488  0.53712508    -0.65000
Ni1203     Ni  0.18856550  0.54466767  0.42818595     1.34900
C1204       C  0.16540758  0.50318528  0.53289672     0.86100
O1205       O  0.18484634  0.49826679  0.39554024    -0.78000
O1206       O  0.18344051  0.53112232  0.38346443    -0.88200
C1207       C  0.18668741  0.45631793  0.46216067     0.85700
O1208       O  0.20344131  0.53505564  0.41955420    -0.66400
O1209       O  0.18902096  0.48885545  0.57775399    -0.85700
C1210       C  0.20842287  0.51854921  0.42442148     0.86500
C1211       C  0.18320990  0.51294322  0.37308382     1.08100
H1212       H  0.19907162  0.49598133  0.50618746     0.39900
O1213       O  0.19102596  0.49679720  0.50249889    -1.08400
O1214       O  0.17104968  0.51832982  0.52264035    -0.65000
Ni1215     Ni  0.18671539  0.52347857  0.51230015     1.26300
O1216       O  0.20351900  0.50338885  0.43857567    -0.65300
O1217       O  0.18994976  0.52179849  0.56598742    -0.77600
C1218       C  0.18858601  0.56442034  0.50049614     0.85900
O1219       O  0.18324419  0.55105557  0.51860454    -0.64700
Ni1220     Ni  0.18462137  0.47599856  0.53178176     1.27400
Ni1221     Ni  0.18797941  0.49694658  0.44911812     1.26100
H1222       H  0.17522542  0.52368221  0.45609436     0.40400
O1223       O  0.19627487  0.55913434  0.98315078    -0.79500
O1224       O  0.19508342  0.47066594  0.93918308    -0.64200
O1225       O  0.18577345  0.52398193  0.96027034    -1.10800
C1226       C  0.18622737  0.50187221  0.08792194     1.07400
O1227       O  0.18094210  0.46112665  0.97510387    -0.77400
O1228       O  0.16803902  0.48464325  0.01758821    -0.65000
Ni1229     Ni  0.19230523  0.54632557  0.93617368     1.34900
C1230       C  0.16458159  0.50243808  0.01897907     0.86100
O1231       O  0.19004266  0.50192813  0.89372810    -0.78000
O1232       O  0.18894122  0.53524548  0.88737492    -0.88200
C1233       C  0.18907866  0.45688747  0.95339506     0.85700
O1234       O  0.20726611  0.53675425  0.93140532    -0.66400
O1235       O  0.18399131  0.48498457  0.07316438    -0.85700
C1236       C  0.21202071  0.51996901  0.93466755     0.86500
C1237       C  0.18938413  0.51770403  0.87354079     1.08100
H1238       H  0.19911748  0.49303889  0.00973166     0.39900
O1239       O  0.19137004  0.49494066  0.00197174    -1.08400
O1240       O  0.17118268  0.51726035  0.01823615    -0.65000
Ni1241     Ni  0.18714569  0.52144015  0.01428375     1.26300
O1242       O  0.20676398  0.50440660  0.94570247    -0.65300
O1243       O  0.18843863  0.51734903  0.06814649    -0.77600
C1244       C  0.18956505  0.56258879  0.01041135     0.85900
O1245       O  0.18358907  0.54866535  0.02384585    -0.64700
Ni1246     Ni  0.18276597  0.47379024  0.02325901     1.27400
Ni1247     Ni  0.19081753  0.49789878  0.94781096     1.26100
H1248       H  0.17786451  0.52446702  0.95388910     0.40400
O1249       O  0.42906799  0.55457938  0.10568798    -0.79500
O1250       O  0.43506822  0.46647389  0.15210718    -0.64200
O1251       O  0.44034758  0.52152960  0.13185293    -1.10800
C1252       C  0.43948118  0.49918860  0.00268754     1.07400
O1253       O  0.44859653  0.45949607  0.11192465    -0.77400
O1254       O  0.45820729  0.48300715  0.05914161    -0.65000
Ni1255     Ni  0.43114175  0.54161395  0.15362568     1.34900
C1256       C  0.46208828  0.50037146  0.06407968     0.86100
O1257       O  0.43846096  0.49840847  0.19747585    -0.78000
O1258       O  0.43257153  0.53011293  0.20338611    -0.88200
C1259       C  0.44186646  0.45396712  0.13779686     0.85700
O1260       O  0.41695542  0.52906175  0.14670269    -0.66400
O1261       O  0.43962396  0.48157780  0.01634209    -0.85700
C1262       C  0.41395681  0.51099584  0.14822686     0.86500
C1263       C  0.43556809  0.51343370  0.21751135     1.08100
H1264       H  0.42815853  0.49049026  0.08285967     0.39900
O1265       O  0.43599969  0.49212181  0.08936476    -1.08400
O1266       O  0.45607081  0.51473065  0.07608891    -0.65000
Ni1267     Ni  0.43995986  0.51884990  0.07758480     1.26300
O1268       O  0.42097210  0.49667922  0.14795721    -0.65300
O1269       O  0.43949850  0.51494406  0.02318394    -0.77600
C1270       C  0.43717129  0.55976375  0.08450674     0.85900
O1271       O  0.44335803  0.54645302  0.06976733    -0.64700
Ni1272     Ni  0.44377102  0.47113064  0.06493008     1.27400
Ni1273     Ni  0.43721662  0.49444265  0.14355235     1.26100
H1274       H  0.44808624  0.52431591  0.13975658     0.40400
O1275       O  0.42969232  0.55231544  0.61473232    -0.79500
O1276       O  0.43588307  0.46530576  0.65126135    -0.64200
O1277       O  0.44247585  0.51944530  0.63016515    -1.10800
C1278       C  0.43578986  0.49941009  0.50268374     1.07400
O1279       O  0.44767618  0.45568620  0.60655982    -0.77400
O1280       O  0.45757731  0.48168559  0.55789980    -0.65000
Ni1281     Ni  0.43584004  0.54014454  0.65915364     1.34900
C1282       C  0.46096837  0.49959597  0.55715325     0.86100
O1283       O  0.44171251  0.49587098  0.69595638    -0.78000
O1284       O  0.44142985  0.52897966  0.70558264    -0.88200
C1285       C  0.44179518  0.45185430  0.63588569     0.85700
O1286       O  0.42148398  0.52858156  0.66820366    -0.66400
O1287       O  0.43864950  0.48216808  0.51447316    -0.85700
C1288       C  0.41728071  0.51147062  0.66308268     0.86500
C1289       C  0.44245737  0.51113929  0.71750292     1.08100
H1290       H  0.42782761  0.48862329  0.58570185     0.39900
O1291       O  0.43581294  0.49066534  0.58928432    -1.08400
O1292       O  0.45454923  0.51422620  0.56467941    -0.65000
Ni1293     Ni  0.43885369  0.51774948  0.57709905     1.26300
O1294       O  0.42302171  0.49685707  0.65103857    -0.65300
O1295       O  0.43509906  0.51460137  0.52440398    -0.77600
C1296       C  0.43583571  0.55835099  0.58775745     0.85900
O1297       O  0.44135959  0.54572096  0.56848677    -0.64700
Ni1298     Ni  0.44297757  0.47001935  0.56167632     1.27400
Ni1299     Ni  0.43885661  0.49271104  0.64240744     1.26100
H1300       H  0.45053095  0.52092551  0.63283525     0.40400
O1301       O  0.31943115  0.55279378  0.27160060    -0.79500
O1302       O  0.31401438  0.46571114  0.23115845    -0.64200
O1303       O  0.30697203  0.51972396  0.25315474    -1.10800
C1304       C  0.30994606  0.49879722  0.38049624     1.07400
O1305       O  0.30126005  0.45519034  0.27208497    -0.77400
O1306       O  0.28962576  0.48235323  0.31376138    -0.65000
Ni1307     Ni  0.31405933  0.54075637  0.22602424     1.34900
C1308       C  0.28686910  0.50039660  0.31876591     0.86100
O1309       O  0.30886707  0.49675213  0.18672111    -0.78000
O1310       O  0.30918575  0.52987405  0.17867308    -0.88200
C1311       C  0.30798153  0.45183848  0.24466745     0.85700
O1312       O  0.32860179  0.52938939  0.21904252    -0.66400
O1313       O  0.30633528  0.48234798  0.36700464    -0.85700
C1314       C  0.33263811  0.51214909  0.22413142     0.86500
C1315       C  0.30841176  0.51222332  0.16568038     1.08100
H1316       H  0.32050525  0.48760000  0.29965896     0.39900
O1317       O  0.31268708  0.49030686  0.29412511    -1.08400
O1318       O  0.29392571  0.51459417  0.31699347    -0.65000
Ni1319     Ni  0.30978226  0.51749983  0.30669157     1.26300
O1320       O  0.32672633  0.49743702  0.23500319    -0.65300
O1321       O  0.31266389  0.51368063  0.35981934    -0.77600
C1322       C  0.31270038  0.55846888  0.29716495     0.85900
O1323       O  0.30725187  0.54544217  0.31574543    -0.64700
Ni1324     Ni  0.30405433  0.47004962  0.31826990     1.27400
Ni1325     Ni  0.31076363  0.49305458  0.24053395     1.26100
H1326       H  0.29895072  0.52122301  0.24918360     0.40400
O1327       O  0.32289917  0.55102325  0.76972128    -0.79500
O1328       O  0.31674164  0.46615186  0.73194351    -0.64200
O1329       O  0.30930954  0.51972834  0.75346313    -1.10800
C1330       C  0.31122226  0.49973345  0.88037578     1.07400
O1331       O  0.30383025  0.45512382  0.77201160    -0.77400
O1332       O  0.29158989  0.48408437  0.80873975    -0.65000
Ni1333     Ni  0.31612265  0.54038827  0.72512429     1.34900
C1334       C  0.28913282  0.50191138  0.81746391     0.86100
O1335       O  0.31172079  0.49710840  0.68701179    -0.78000
O1336       O  0.30988347  0.53009180  0.67910509    -0.88200
C1337       C  0.31077542  0.45209929  0.74497375     0.85700
O1338       O  0.33012388  0.52830683  0.71276767    -0.66400
O1339       O  0.30693526  0.48390889  0.86638670    -0.85700
C1340       C  0.33461620  0.51180750  0.72110456     0.86500
C1341       C  0.31018842  0.51240227  0.66597117     1.08100
H1342       H  0.32256191  0.48718446  0.80087700     0.39900
O1343       O  0.31485722  0.49042186  0.79475445    -1.08400
O1344       O  0.29650711  0.51566930  0.81815881    -0.65000
Ni1345     Ni  0.31239003  0.51778982  0.80688473     1.26300
O1346       O  0.32918643  0.49799109  0.73748877    -0.65300
O1347       O  0.31525204  0.51385496  0.86008625    -0.77600
C1348       C  0.31684657  0.55807489  0.79593581     0.85900
O1349       O  0.31075206  0.54616304  0.81517783    -0.64700
Ni1350     Ni  0.30559827  0.47088675  0.81789664     1.27400
Ni1351     Ni  0.31324479  0.49327286  0.74112245     1.26100
H1352       H  0.30126945  0.52102649  0.74988132     0.40400
O1353       O  0.43128163  0.21223997  0.26392872    -0.79500
O1354       O  0.43835644  0.29817813  0.21920495    -0.64200
O1355       O  0.44460611  0.24388620  0.24211889    -1.10800
C1356       C  0.44521231  0.26532725  0.36885760     1.07400
O1357       O  0.45196832  0.30807940  0.25759421    -0.77400
O1358       O  0.46395527  0.27998236  0.29520078    -0.65000
Ni1359     Ni  0.43680729  0.22303379  0.21724807     1.34900
C1360       C  0.46625786  0.26207973  0.30339888     0.86100
O1361       O  0.44185476  0.26600705  0.17477682    -0.78000
O1362       O  0.44191236  0.23264826  0.16936605    -0.88200
C1363       C  0.44486767  0.31174260  0.23144739     0.85700
O1364       O  0.42267278  0.23579667  0.20892114    -0.66400
O1365       O  0.44901776  0.28125728  0.35379857    -0.85700
C1366       C  0.41886236  0.25316941  0.21461695     0.86500
C1367       C  0.44227018  0.25003474  0.15494033     1.08100
H1368       H  0.43275926  0.27747944  0.29019068     0.39900
O1369       O  0.44035890  0.27399567  0.28297331    -1.08400
O1370       O  0.45882914  0.24842938  0.30357686    -0.65000
Ni1371     Ni  0.44277594  0.24664973  0.29584250     1.26300
O1372       O  0.42492704  0.26727774  0.22737987    -0.65300
O1373       O  0.44107085  0.25102542  0.34937738    -0.77600
C1374       C  0.43805297  0.20600628  0.28903314     0.85900
O1375       O  0.44455007  0.21846076  0.30518593    -0.64700
Ni1376     Ni  0.45010556  0.29345531  0.30441939     1.27400
Ni1377     Ni  0.44111241  0.27061556  0.22903761     1.26100
H1378       H  0.45252605  0.24190905  0.23679192     0.40400
O1379       O  0.43568871  0.20969701  0.75673887    -0.79500
O1380       O  0.44031515  0.29861797  0.72292662    -0.64200
O1381       O  0.44736254  0.24429144  0.74057771    -1.10800
C1382       C  0.44071433  0.26146023  0.86975296     1.07400
O1383       O  0.45089983  0.30866195  0.77055737    -0.77400
O1384       O  0.46114685  0.28293493  0.81850666    -0.65000
Ni1385     Ni  0.44011043  0.22392824  0.71218160     1.34900
C1386       C  0.46536312  0.26566596  0.81561704     0.86100
O1387       O  0.44713039  0.26907887  0.67682344    -0.78000
O1388       O  0.44409590  0.23658372  0.66540239    -0.88200
C1389       C  0.44509794  0.31248625  0.74115291     0.85700
O1390       O  0.42532405  0.23488258  0.71067414    -0.66400
O1391       O  0.44195520  0.27948075  0.85925588    -0.85700
C1392       C  0.42161082  0.25249220  0.71312590     0.86500
C1393       C  0.44666596  0.25408956  0.65444327     1.08100
H1394       H  0.43208680  0.27277864  0.78639267     0.39900
O1395       O  0.44016362  0.27194456  0.78335526    -1.08400
O1396       O  0.45980861  0.25060470  0.80431659    -0.65000
Ni1397     Ni  0.44427595  0.24503777  0.79378423     1.26300
O1398       O  0.42792129  0.26733741  0.71943930    -0.65300
O1399       O  0.44112708  0.24664965  0.84713480    -0.77600
C1400       C  0.44240685  0.20436538  0.78270957     0.85900
O1401       O  0.44804437  0.21745005  0.80043158    -0.64700
Ni1402     Ni  0.44622329  0.29292917  0.81347184     1.27400
Ni1403     Ni  0.44364467  0.27122859  0.73017220     1.26100
H1404       H  0.45537076  0.24271873  0.73675571     0.40400
O1405       O  0.32113920  0.21160518  0.10267262    -0.79500
O1406       O  0.31672357  0.29923394  0.14854391    -0.64200
O1407       O  0.30978036  0.24514647  0.12563252    -1.10800
C1408       C  0.31538804  0.26715748  0.99808056     1.07400
O1409       O  0.30493043  0.30912889  0.10407851    -0.77400
O1410       O  0.29561946  0.28578546  0.04904786    -0.65000
Ni1411     Ni  0.31728140  0.22383296  0.15000684     1.34900
C1412       C  0.29100934  0.26878748  0.05151429     0.86100
O1413       O  0.31116116  0.26769303  0.19237315    -0.78000
O1414       O  0.31389269  0.23473817  0.19884309    -0.88200
C1415       C  0.31084194  0.31287275  0.13336279     0.85700
O1416       O  0.33202590  0.23486616  0.15232944    -0.66400
O1417       O  0.31528315  0.28475124  0.01177451    -0.85700
C1418       C  0.33590913  0.25243421  0.15276343     0.86500
C1419       C  0.31198896  0.25194791  0.21271427     1.08100
H1420       H  0.32441874  0.27472359  0.08128355     0.39900
O1421       O  0.31638222  0.27401549  0.08534774    -1.08400
O1422       O  0.29610000  0.25360283  0.06475137    -0.65000
Ni1423     Ni  0.31189956  0.24767852  0.07194972     1.26300
O1424       O  0.32968890  0.26755728  0.14717641    -0.65300
O1425       O  0.31416905  0.25148821  0.01831544    -0.77600
C1426       C  0.31371454  0.20660055  0.07867888     0.85900
O1427       O  0.30799830  0.22020554  0.06260308    -0.64700
Ni1428     Ni  0.31031074  0.29601755  0.05883081     1.27400
Ni1429     Ni  0.31372709  0.27169722  0.13881427     1.26100
H1430       H  0.30183851  0.24348741  0.13070103     0.40400
O1431       O  0.32462629  0.21348481  0.60540571    -0.79500
O1432       O  0.31966978  0.30054863  0.64480588    -0.64200
O1433       O  0.31247561  0.24614457  0.62771400    -1.10800
C1434       C  0.31356734  0.26578019  0.49818535     1.07400
O1435       O  0.30587074  0.30930535  0.60634341    -0.77400
O1436       O  0.29422760  0.28368327  0.56029969    -0.65000
Ni1437     Ni  0.32039466  0.22543512  0.65253590     1.34900
C1438       C  0.29075697  0.26580391  0.56181790     0.86100
O1439       O  0.31593057  0.26970175  0.69212206    -0.78000
O1440       O  0.31660838  0.23642728  0.70097674    -0.88200
C1441       C  0.31301300  0.31373062  0.63204810     0.85700
O1442       O  0.33500432  0.23708483  0.65550267    -0.66400
O1443       O  0.31174353  0.28339103  0.51047300    -0.85700
C1444       C  0.33894734  0.25432848  0.64951917     0.86500
C1445       C  0.31585678  0.25422890  0.71331721     1.08100
H1446       H  0.32495424  0.27657202  0.57619681     0.39900
O1447       O  0.31719068  0.27472640  0.58365121    -1.08400
O1448       O  0.29729785  0.25122520  0.56896718    -0.65000
Ni1449     Ni  0.31345606  0.24766490  0.57354177     1.26300
O1450       O  0.33277243  0.26898564  0.63992382    -0.65300
O1451       O  0.31463418  0.25055230  0.51959951    -0.77600
C1452       C  0.31732251  0.20725800  0.58205014     0.85900
O1453       O  0.31062093  0.21966824  0.56690553    -0.64700
Ni1454     Ni  0.30897156  0.29534064  0.55938781     1.27400
Ni1455     Ni  0.31657974  0.27291260  0.63784629     1.26100
H1456       H  0.30464925  0.24463700  0.63464407     0.40400
O1457       O  0.43305405  0.71146475  0.02501811    -0.79500
O1458       O  0.43712498  0.79850804  0.97695905    -0.64200
O1459       O  0.44425040  0.74477725  0.00122245    -1.10800
C1460       C  0.44043475  0.76736562  0.12877110     1.07400
O1461       O  0.44898767  0.81011710  0.01962579    -0.77400
O1462       O  0.46012428  0.78565844  0.06878270    -0.65000
Ni1463     Ni  0.43624524  0.72357178  0.97735302     1.34900
C1464       C  0.46406370  0.76810612  0.06963002     0.86100
O1465       O  0.44276832  0.76699329  0.93467649    -0.78000
O1466       O  0.43891646  0.73442040  0.92789334    -0.88200
C1467       C  0.44275239  0.81282379  0.99066864     0.85700
O1468       O  0.42148272  0.73457109  0.97792509    -0.66400
O1469       O  0.44195090  0.78472711  0.11493939    -0.85700
C1470       C  0.41795657  0.75233461  0.97705805     0.86500
C1471       C  0.44132719  0.75148406  0.91427667     1.08100
H1472       H  0.43014378  0.77559936  0.04623471     0.39900
O1473       O  0.43811728  0.77426362  0.04137532    -1.08400
O1474       O  0.45813290  0.75283871  0.06207834    -0.65000
Ni1475     Ni  0.44228464  0.74767844  0.05501160     1.26300
O1476       O  0.42446809  0.76721655  0.98063294    -0.65300
O1477       O  0.44002901  0.75162567  0.10848862    -0.77600
C1478       C  0.44086970  0.70669481  0.04758048     0.85900
O1479       O  0.44619125  0.72033698  0.06480168    -0.64700
Ni1480     Ni  0.44522322  0.79613652  0.06609080     1.27400
Ni1481     Ni  0.44041165  0.77130971  0.98785247     1.26100
H1482       H  0.45215553  0.74287411  0.99580508     0.40400
O1483       O  0.42769429  0.71293643  0.51850131    -0.79500
O1484       O  0.43248640  0.79923264  0.48243771    -0.64200
O1485       O  0.44039650  0.74562661  0.50231093    -1.10800
C1486       C  0.43691384  0.76485035  0.63028027     1.07400
O1487       O  0.44541341  0.80929249  0.52329459    -0.77400
O1488       O  0.45706411  0.78293602  0.56767080    -0.65000
Ni1489     Ni  0.43383819  0.72468957  0.47378739     1.34900
C1490       C  0.45998796  0.76495683  0.57277863     0.86100
O1491       O  0.43775230  0.76874285  0.43637860    -0.78000
O1492       O  0.43946854  0.73575852  0.42749527    -0.88200
C1493       C  0.43876556  0.81284600  0.49568699     0.85700
O1494       O  0.41942614  0.73578671  0.46330958    -0.66400
O1495       O  0.43984695  0.78190650  0.61761379    -0.85700
C1496       C  0.41472650  0.75214011  0.47144480     0.86500
C1497       C  0.43926830  0.75357202  0.41496998     1.08100
H1498       H  0.42638587  0.77642797  0.55010073     0.39900
O1499       O  0.43423946  0.77415083  0.54439800    -1.08400
O1500       O  0.45323282  0.75042861  0.56777984    -0.65000
Ni1501     Ni  0.43741001  0.74705250  0.55584748     1.26300
O1502       O  0.42005534  0.76662326  0.48627178    -0.65300
O1503       O  0.43439559  0.75007295  0.60904753    -0.77600
C1504       C  0.43405309  0.70659973  0.54461264     0.85900
O1505       O  0.43987540  0.71903333  0.56345054    -0.64700
Ni1506     Ni  0.44237492  0.79455431  0.56942474     1.27400
Ni1507     Ni  0.43603317  0.77199232  0.49065763     1.26100
H1508       H  0.44844980  0.74474259  0.49864563     0.40400
O1509       O  0.31694692  0.71269972  0.36756725    -0.79500
O1510       O  0.31556711  0.79991335  0.39974936    -0.64200
O1511       O  0.30549721  0.74698772  0.38298523    -1.10800
C1512       C  0.30917695  0.76443136  0.25383401     1.07400
O1513       O  0.30278432  0.81073545  0.35910333    -0.77400
O1514       O  0.28994456  0.78518640  0.31849326    -0.65000
Ni1515     Ni  0.31149715  0.72575107  0.41196979     1.34900
C1516       C  0.28617669  0.76765867  0.31439852     0.86100
O1517       O  0.30950044  0.77060834  0.44765498    -0.78000
O1518       O  0.30651594  0.73804103  0.45780137    -0.88200
C1519       C  0.30985818  0.81401926  0.38551297     0.85700
O1520       O  0.32636438  0.73536153  0.42135183    -0.66400
O1521       O  0.30653473  0.78173543  0.26584851    -0.85700
C1522       C  0.33154898  0.75110780  0.41208051     0.86500
C1523       C  0.30758481  0.75585244  0.46975620     1.08100
H1524       H  0.32027593  0.77556090  0.33276990     0.39900
O1525       O  0.31239581  0.77423958  0.33915652    -1.08400
O1526       O  0.29231263  0.75225296  0.31862912    -0.65000
Ni1527     Ni  0.30814949  0.74740185  0.32919594     1.26300
O1528       O  0.32663050  0.76582558  0.39657597    -0.65300
O1529       O  0.31103937  0.74956383  0.27564962    -0.77600
C1530       C  0.31028030  0.70675831  0.34194070     0.85900
O1531       O  0.30473095  0.71953494  0.32298792    -0.64700
Ni1532     Ni  0.30487237  0.79515716  0.31369967     1.27400
Ni1533     Ni  0.31090332  0.77298703  0.39311342     1.26100
H1534       H  0.29746460  0.74703557  0.38732639     0.40400
O1535       O  0.32333695  0.71268210  0.85890580    -0.79500
O1536       O  0.31639291  0.79910562  0.90259554    -0.64200
O1537       O  0.31035889  0.74473486  0.88142428    -1.10800
C1538       C  0.31089063  0.76797785  0.75438151     1.07400
O1539       O  0.30183021  0.80704796  0.86705592    -0.77400
O1540       O  0.29092883  0.78138420  0.81996403    -0.65000
Ni1541     Ni  0.31865483  0.72428885  0.90602172     1.34900
C1542       C  0.28837671  0.76311076  0.81709035     0.86100
O1543       O  0.31300895  0.76768545  0.94781113    -0.78000
O1544       O  0.31464451  0.73462679  0.95499183    -0.88200
C1545       C  0.30927643  0.81180446  0.89134731     0.85700
O1546       O  0.33296610  0.73685632  0.90900468    -0.66400
O1547       O  0.30786625  0.78449500  0.76906950    -0.85700
C1548       C  0.33644787  0.75442955  0.90354970     0.86500
C1549       C  0.31329214  0.75208932  0.96849473     1.08100
H1550       H  0.32199922  0.77794874  0.83277818     0.39900
O1551       O  0.31435666  0.77477729  0.84008552    -1.08400
O1552       O  0.29558861  0.74926186  0.82116052    -0.65000
Ni1553     Ni  0.31176081  0.74767064  0.82738878     1.26300
O1554       O  0.32993447  0.76879426  0.89533276    -0.65300
O1555       O  0.31325793  0.75238784  0.77374635    -0.77600
C1556       C  0.31661427  0.70715346  0.83303577     0.85900
O1557       O  0.30994629  0.71964755  0.81796705    -0.64700
Ni1558     Ni  0.30508815  0.79485187  0.81879140     1.27400
Ni1559     Ni  0.31374767  0.77163559  0.89378407     1.26100
H1560       H  0.30251259  0.74250131  0.88749582     0.40400
O1561       O  0.42982037  0.05194162  0.35293215    -0.79500
O1562       O  0.43371259  0.96497983  0.39768326    -0.64200
O1563       O  0.44139259  0.01845691  0.37309393    -1.10800
C1564       C  0.43490222  0.99612584  0.24621799     1.07400
O1565       O  0.44519783  0.95422368  0.35330222    -0.77400
O1566       O  0.45514435  0.97737468  0.30043942    -0.65000
Ni1567     Ni  0.43472197  0.04009398  0.39924989     1.34900
C1568       C  0.45954393  0.99457013  0.30073805     0.86100
O1569       O  0.44024422  0.99611973  0.44055268    -0.78000
O1570       O  0.43921868  0.02937077  0.44715063    -0.88200
C1571       C  0.43909862  0.95086983  0.38220820     0.85700
O1572       O  0.41994868  0.02966213  0.40610314    -0.66400
O1573       O  0.43590615  0.97867031  0.26003793    -0.85700
C1574       C  0.41571427  0.01236891  0.40455609     0.86500
C1575       C  0.44048630  0.01194022  0.46082734     1.08100
H1576       H  0.42614874  0.98864136  0.33031120     0.39900
O1577       O  0.43419838  0.98957370  0.33383319    -1.08400
O1578       O  0.45412313  0.01016718  0.31012271    -0.65000
Ni1579     Ni  0.43843270  0.01595515  0.31960849     1.26300
O1580       O  0.42148040  0.99713068  0.39593153    -0.65300
O1581       O  0.43542643  0.01198365  0.26631140    -0.77600
C1582       C  0.43683144  0.05701939  0.32770660     0.85900
O1583       O  0.44206025  0.04355045  0.30944707    -0.64700
Ni1584     Ni  0.44031754  0.96744478  0.30770622     1.27400
Ni1585     Ni  0.43724743  0.99214143  0.38709418     1.26100
H1586       H  0.44943903  0.01967113  0.37679490     0.40400
O1587       O  0.42921257  0.05316352  0.85369962    -0.79500
O1588       O  0.43207481  0.96391002  0.89158025    -0.64200
O1589       O  0.43937363  0.01848334  0.87578483    -1.10800
C1590       C  0.43586417  0.99959597  0.74520973     1.07400
O1591       O  0.44474403  0.95568614  0.84863950    -0.77400
O1592       O  0.45432414  0.98007502  0.79504253    -0.65000
Ni1593     Ni  0.43150622  0.03929124  0.90050741     1.34900
C1594       C  0.45900205  0.99677361  0.80107245     0.86100
O1595       O  0.43689669  0.99412825  0.93937866    -0.78000
O1596       O  0.43344865  0.02677762  0.94902902    -0.88200
C1597       C  0.43845776  0.95096211  0.87650255     0.85700
O1598       O  0.41666807  0.02869324  0.89667778    -0.66400
O1599       O  0.43491838  0.98172414  0.75719832    -0.85700
C1600       C  0.41292113  0.01101943  0.89611024     0.86500
C1601       C  0.43541273  0.00919303  0.96102688     1.08100
H1602       H  0.42533924  0.99058589  0.82584692     0.39900
O1603       O  0.43330658  0.99087311  0.83137440    -1.08400
O1604       O  0.45407594  0.01095963  0.81812279    -0.65000
Ni1605     Ni  0.43830887  0.01722580  0.82152737     1.26300
O1606       O  0.41924054  0.99593730  0.89168039    -0.65300
O1607       O  0.43726257  0.01464069  0.76706045    -0.77600
C1608       C  0.43734213  0.05801340  0.83229798     0.85900
O1609       O  0.44286450  0.04443901  0.81561123    -0.64700
Ni1610     Ni  0.43962271  0.96948874  0.80376909     1.27400
Ni1611     Ni  0.43519469  0.99167399  0.88531863     1.26100
H1612       H  0.44720094  0.01991733  0.88279681     0.40400
O1613       O  0.31595848  0.05374332  0.01759251    -0.79500
O1614       O  0.31351206  0.96451640  0.98197847    -0.64200
O1615       O  0.30548970  0.01849342  0.99875506    -1.10800
C1616       C  0.31053007  0.00095561  0.12885428     1.07400
O1617       O  0.30246719  0.95408749  0.02795721    -0.77400
O1618       O  0.29190505  0.97868863  0.07769271    -0.65000
Ni1619     Ni  0.31318829  0.03901914  0.97217146     1.34900
C1620       C  0.28703972  0.99536195  0.07370969     0.86100
O1621       O  0.30687390  0.99362860  0.93518004    -0.78000
O1622       O  0.31090450  0.02580171  0.92463423    -0.88200
C1623       C  0.30839060  0.95055026  0.99871323     0.85700
O1624       O  0.32812149  0.02884740  0.97563009    -0.66400
O1625       O  0.31094365  0.98297517  0.11738518    -0.85700
C1626       C  0.33182366  0.01118873  0.97570511     0.86500
C1627       C  0.30834610  0.00842603  0.91289082     1.08100
H1628       H  0.32063838  0.99125265  0.04647594     0.39900
O1629       O  0.31258837  0.99127934  0.04245972    -1.08400
O1630       O  0.29192049  0.01069648  0.06009560    -0.65000
Ni1631     Ni  0.30754260  0.01773839  0.05268760     1.26300
O1632       O  0.32546652  0.99618558  0.97957631    -0.65300
O1633       O  0.30964229  0.01596266  0.10678727    -0.77600
C1634       C  0.30830477  0.05861832  0.04077623     0.85900
O1635       O  0.30298890  0.04513696  0.05872559    -0.64700
Ni1636     Ni  0.30695928  0.96962010  0.07141123     1.27400
Ni1637     Ni  0.30972863  0.99172613  0.98889605     1.26100
H1638       H  0.29755322  0.01985157  0.99314643     0.40400
O1639       O  0.32115086  0.05160314  0.51873536    -0.79500
O1640       O  0.31506744  0.96676165  0.47840665    -0.64200
O1641       O  0.30770969  0.02034784  0.50045581    -1.10800
C1642       C  0.30914051  0.99894043  0.62713790     1.07400
O1643       O  0.30133689  0.95696758  0.51618087    -0.77400
O1644       O  0.28942360  0.98437820  0.55571856    -0.65000
Ni1645     Ni  0.31466307  0.04125930  0.47340137     1.34900
C1646       C  0.28693919  0.00238813  0.56241674     0.86100
O1647       O  0.31041751  0.99823161  0.43356762    -0.78000
O1648       O  0.30858521  0.03135550  0.42695371    -0.88200
C1649       C  0.30869128  0.95313044  0.49096867     0.85700
O1650       O  0.32874787  0.02925600  0.46133473    -0.66400
O1651       O  0.30505731  0.98307674  0.61262827    -0.85700
C1652       C  0.33320584  0.01267863  0.46946120     0.86500
C1653       C  0.30877171  0.01378548  0.41327751     1.08100
H1654       H  0.32054213  0.98749396  0.54804480     0.39900
O1655       O  0.31286924  0.99078254  0.54138233    -1.08400
O1656       O  0.29434184  0.01606717  0.56333739    -0.65000
Ni1657     Ni  0.31032868  0.01796926  0.55403922     1.26300
O1658       O  0.32770945  0.99869490  0.48520536    -0.65300
O1659       O  0.31276972  0.01359929  0.60736463    -0.77600
C1660       C  0.31492368  0.05822887  0.54495007     0.85900
O1661       O  0.30864255  0.04614859  0.56299027    -0.64700
Ni1662     Ni  0.30345394  0.97112555  0.56331290     1.27400
Ni1663     Ni  0.31168271  0.99397835  0.48769269     1.26100
H1664       H  0.29970202  0.02167419  0.49617506     0.40400
C1665       C  0.30915264  0.98498741  0.81439827     0.14000
C1666       C  0.30894380  0.00201071  0.79116446     0.01000
C1667       C  0.30767108  0.02074056  0.80791742     0.16000
C1668       C  0.30692319  0.02262024  0.84721130     0.25400
C1669       C  0.30755730  0.00573211  0.87102041    -0.40900
C1670       C  0.30844554  0.98679664  0.85402545     0.32400
C1671       C  0.30946333  0.00045686  0.74928435     0.01100
F1672       F  0.30700415  0.03732693  0.78603580    -0.13300
F1673       F  0.30898253  0.97008741  0.87559399    -0.13800
C1674       C  0.30093990  0.99035797  0.72968006     0.16000
C1675       C  0.30082031  0.99014338  0.69008129     0.25400
C1676       C  0.30927662  0.00000578  0.66912951    -0.40900
C1677       C  0.31781068  0.01020314  0.68879516     0.32400
C1678       C  0.31791515  0.01037797  0.72858897     0.14100
F1679       F  0.29246105  0.98131664  0.74894338    -0.13200
F1680       F  0.32615622  0.01964274  0.66959182    -0.13800
F1681       F  0.29217331  0.98078556  0.67223408    -0.16000
F1682       F  0.32628722  0.02018581  0.74699869    -0.14600
F1683       F  0.31033278  0.96666030  0.79873207    -0.14600
F1684       F  0.30558890  0.04115737  0.86179951    -0.16000
C1685       C  0.30323499  0.99267066  0.23166020     0.14000
C1686       C  0.30857864  0.00867759  0.24961267     0.01000
C1687       C  0.31436598  0.02284475  0.22753774     0.16000
C1688       C  0.31507379  0.02058583  0.18800671     0.25400
C1689       C  0.31013677  0.00397934  0.17033242    -0.40900
C1690       C  0.30407334  0.99024188  0.19258766     0.32400
C1691       C  0.30834105  0.00993759  0.29147202     0.01100
F1692       F  0.31954932  0.03854224  0.24434961    -0.13300
F1693       F  0.29866294  0.97460737  0.17639391    -0.13800
C1694       C  0.31246151  0.99405591  0.31334419     0.16000
C1695       C  0.31207199  0.99480552  0.35292385     0.25400
C1696       C  0.30769637  0.01167100  0.37151148    -0.40900
C1697       C  0.30339175  0.02743655  0.34934269     0.32400
C1698       C  0.30369619  0.02652309  0.30972693     0.14100
F1699       F  0.31717253  0.97798655  0.29625923    -0.13200
F1700       F  0.29891242  0.04384833  0.36590433    -0.13800
F1701       F  0.31644138  0.97934456  0.37286139    -0.16000
F1702       F  0.29935269  0.04177622  0.28916662    -0.14600
F1703       F  0.29707912  0.97941691  0.25207493    -0.14600
F1704       F  0.32081801  0.03424909  0.16726468    -0.16000
C1705       C  0.38575515  0.98945978  0.93533999     0.14000
C1706       C  0.37825645  0.00535504  0.92976212     0.01000
C1707       C  0.38189990  0.02204513  0.90908080     0.16000
C1708       C  0.39300479  0.02343817  0.89634063     0.25400
C1709       C  0.40072109  0.00799619  0.90346781    -0.40900
C1710       C  0.39686574  0.99069463  0.92209663     0.32400
C1711       C  0.36673226  0.00510312  0.94616303     0.01100
F1712       F  0.37469584  0.03722206  0.90164447    -0.13300
F1713       F  0.40401335  0.97546273  0.92970143    -0.13800
C1714       C  0.36312728  0.02095656  0.96919290     0.16000
C1715       C  0.35187065  0.02248761  0.98025468     0.25400
C1716       C  0.34400633  0.00797671  0.96915321    -0.40900
C1717       C  0.34779812  0.99125922  0.94864470     0.32400
C1718       C  0.35905210  0.98991982  0.93702407     0.14100
F1719       F  0.37049973  0.03525551  0.98031806    -0.13200
F1720       F  0.34048117  0.97684039  0.93762967    -0.13800
F1721       F  0.34862720  0.03835865  0.00139778    -0.16000
F1722       F  0.36226965  0.97438240  0.91496487    -0.14600
F1723       F  0.38251301  0.97317626  0.95534905    -0.14600
F1724       F  0.39624581  0.04013137  0.87758726    -0.16000
C1725       C  0.44534323  0.01790096  0.64885755     0.14000
C1726       C  0.43983404  0.00457245  0.62441264     0.01000
C1727       C  0.43239346  0.99045010  0.63967417     0.16000
C1728       C  0.43062291  0.98944617  0.67891105     0.25400
C1729       C  0.43626339  0.00260099  0.70358527    -0.40900
C1730       C  0.44357127  0.01697298  0.68805281     0.32400
C1731       C  0.44102872  0.00666095  0.58279845     0.01100
F1732       F  0.42666830  0.97789347  0.61645397    -0.13300
F1733       F  0.44942522  0.02955159  0.71087934    -0.13800
C1734       C  0.44559190  0.99136774  0.56035009     0.16000
C1735       C  0.44582764  0.99315839  0.52061511     0.25400
C1736       C  0.44155902  0.01037351  0.50283942    -0.40900
C1737       C  0.43741235  0.02592732  0.52593117     0.32400
C1738       C  0.43710942  0.02399107  0.56527473     0.14100
F1739       F  0.44979007  0.97472690  0.57693926    -0.13200
F1740       F  0.43307752  0.04278470  0.51056734    -0.13800
F1741       F  0.45019170  0.97807759  0.49967550    -0.16000
F1742       F  0.43249561  0.03880461  0.58632990    -0.14600
F1743       F  0.45259677  0.03164309  0.63470376    -0.14600
F1744       F  0.42333999  0.97567124  0.69276887    -0.16000
C1745       C  0.42846203  0.98913803  0.05841242     0.14000
C1746       C  0.43372912  0.00319389  0.08217733     0.01000
C1747       C  0.43985987  0.01885671  0.06562010     0.16000
C1748       C  0.44057172  0.02059788  0.02617484     0.25400
C1749       C  0.43548648  0.00635226  0.00250484    -0.40900
C1750       C  0.42944547  0.99057858  0.01893018     0.32400
C1751       C  0.43319514  0.00115365  0.12412067     0.01100
F1752       F  0.44533590  0.03231945  0.08764439    -0.13300
F1753       F  0.42399601  0.97716064  0.99671319    -0.13800
C1754       C  0.43643423  0.98324612  0.14136793     0.16000
C1755       C  0.43655454  0.98144326  0.18081058     0.25400
C1756       C  0.43362076  0.99770772  0.20426789    -0.40900
C1757       C  0.43024632  0.01560586  0.18686751     0.32400
C1758       C  0.42992223  0.01722033  0.14722141     0.14100
F1759       F  0.43998765  0.96765130  0.12001704    -0.13200
F1760       F  0.42731087  0.03162813  0.20808604    -0.13800
F1761       F  0.44006926  0.96390235  0.19579092    -0.16000
F1762       F  0.42640645  0.03453871  0.13137452    -0.14600
F1763       F  0.42209963  0.97430780  0.07341088    -0.14600
F1764       F  0.44631348  0.03617004  0.01105611    -0.16000
C1765       C  0.36360346  0.99443237  0.46947446     0.14000
C1766       C  0.36823103  0.00593766  0.44005809     0.01000
C1767       C  0.36126162  0.01884832  0.41954392     0.16000
C1768       C  0.34989970  0.02073101  0.42882014     0.25400
C1769       C  0.34522145  0.00974591  0.45911387    -0.40900
C1770       C  0.35216826  0.99629968  0.47897113     0.32400
C1771       C  0.38050111  0.00640217  0.43303536     0.01100
F1772       F  0.36556484  0.02999519  0.39084291    -0.13300
F1773       F  0.34803738  0.98562755  0.50857187    -0.13800
C1774       C  0.38597103  0.99109102  0.41322930     0.16000
C1775       C  0.39743147  0.99283283  0.40393686     0.25400
C1776       C  0.40357108  0.01002408  0.41424283    -0.40900
C1777       C  0.39799904  0.02506916  0.43490519     0.32400
C1778       C  0.38662639  0.02324254  0.44405739     0.14100
F1779       F  0.38013673  0.97475726  0.40195689    -0.13200
F1780       F  0.40354859  0.04159693  0.44678033    -0.13800
F1781       F  0.40240185  0.97793565  0.38408096    -0.16000
F1782       F  0.38150723  0.03809978  0.46360462    -0.14600
F1783       F  0.37025968  0.98203166  0.48995827    -0.14600
F1784       F  0.34348291  0.03336559  0.40794267    -0.16000
C1785       C  0.29954088  0.86247277  0.92415536     0.14000
C1786       C  0.30968289  0.87102211  0.93650899     0.01000
C1787       C  0.31970960  0.86010003  0.93385389     0.16000
C1788       C  0.31957411  0.84073717  0.91948120     0.25400
C1789       C  0.30939760  0.83207738  0.90730133    -0.40900
C1790       C  0.29939146  0.84318960  0.90955501     0.32400
C1791       C  0.30969791  0.89119908  0.95289040     0.01100
F1792       F  0.32960044  0.86809826  0.94572430    -0.13300
F1793       F  0.28941270  0.83527903  0.89831398    -0.13800
C1794       C  0.30345906  0.89513443  0.98579536     0.16000
C1795       C  0.30309009  0.91431187  0.00086852     0.25400
C1796       C  0.30894401  0.93004425  0.98310147    -0.40900
C1797       C  0.31542474  0.92584704  0.95044319     0.32400
C1798       C  0.31577551  0.90659914  0.93554210     0.14100
F1799       F  0.29779103  0.88026807  0.00359081    -0.13200
F1800       F  0.32143639  0.94029778  0.93270272    -0.13800
F1801       F  0.29699920  0.91733568  0.03294361    -0.16000
F1802       F  0.32188059  0.90306743  0.90367008    -0.14600
F1803       F  0.28977743  0.87290509  0.92600739    -0.14600
F1804       F  0.32943354  0.83064676  0.91669657    -0.16000
C1805       C  0.31200390  0.77934440  0.56692028     0.14000
C1806       C  0.30996136  0.76311731  0.59099921     0.01000
C1807       C  0.30631795  0.74506029  0.57547151     0.16000
C1808       C  0.30494402  0.74303379  0.53633619     0.25400
C1809       C  0.30732379  0.75906314  0.51161012    -0.40900
C1810       C  0.31069642  0.77737128  0.52763559     0.32400
C1811       C  0.31093618  0.76521818  0.63256504     0.01100
F1812       F  0.30395150  0.72936504  0.59839226    -0.13300
F1813       F  0.31304611  0.79328580  0.50544069    -0.13800
C1814       C  0.30392003  0.77861182  0.65164191     0.16000
C1815       C  0.30403015  0.77957966  0.69112560     0.25400
C1816       C  0.31121247  0.76713319  0.71245547    -0.40900
C1817       C  0.31840027  0.75393509  0.69323136     0.32400
C1818       C  0.31827048  0.75301856  0.65352931     0.14100
F1819       F  0.29658567  0.79019775  0.63202342    -0.13200
F1820       F  0.32561035  0.74208544  0.71276477    -0.13800
F1821       F  0.29672207  0.79217296  0.70843808    -0.16000
F1822       F  0.32528705  0.74021154  0.63548605    -0.14600
F1823       F  0.31551635  0.79700365  0.58144229    -0.14600
F1824       F  0.30138867  0.72518821  0.52286793    -0.16000
C1825       C  0.31857424  0.74820747  0.15558446     0.14000
C1826       C  0.31105187  0.75888669  0.13241720     0.01000
C1827       C  0.30281029  0.77084679  0.14938107     0.16000
C1828       C  0.30216785  0.77236392  0.18882047     0.25400
C1829       C  0.30975440  0.76187743  0.21219052    -0.40900
C1830       C  0.31792240  0.74966256  0.19522635     0.32400
C1831       C  0.31160037  0.75731695  0.09054663     0.01100
F1832       F  0.29522492  0.78078604  0.12767488    -0.13300
F1833       F  0.32550592  0.73972074  0.21691024    -0.13800
C1834       C  0.30971941  0.73896558  0.07280760     0.16000
C1835       C  0.30999145  0.73739848  0.03328021     0.25400
C1836       C  0.31226262  0.75419935  0.01045639    -0.40900
C1837       C  0.31405691  0.77270115  0.02848798     0.32400
C1838       C  0.31367486  0.77421234  0.06813285     0.14100
F1839       F  0.30739612  0.72255090  0.09385013    -0.13200
F1840       F  0.31647224  0.78927824  0.00800949    -0.13800
F1841       F  0.30790872  0.71935858  0.01747228    -0.16000
F1842       F  0.31555212  0.79213462  0.08475684    -0.14600
F1843       F  0.32669753  0.73671359  0.13974047    -0.14600
F1844       F  0.29394631  0.78383567  0.20419426    -0.16000
C1845       C  0.31890320  0.90768583  0.43666444     0.14000
C1846       C  0.31081647  0.89350135  0.44697061     0.01000
C1847       C  0.30207852  0.89879284  0.47158546     0.16000
C1848       C  0.30133504  0.91815566  0.48559916     0.25400
C1849       C  0.30940145  0.93264972  0.47530120    -0.40900
C1850       C  0.31825839  0.92709357  0.45079135     0.32400
C1851       C  0.31120118  0.87332117  0.43089870     0.01100
F1852       F  0.29413529  0.88522823  0.48155083    -0.13300
F1853       F  0.32638317  0.94028946  0.44073641    -0.13800
C1854       C  0.31482908  0.85722529  0.45301801     0.16000
C1855       C  0.31479468  0.83797495  0.43796839     0.25400
C1856       C  0.31080831  0.83448445  0.40088479    -0.40900
C1857       C  0.30737073  0.85085512  0.37865093     0.32400
C1858       C  0.30760863  0.87008119  0.39355716     0.14100
F1859       F  0.31834032  0.86018133  0.48926503    -0.13200
F1860       F  0.30385033  0.84833672  0.34228782    -0.13800
F1861       F  0.31844202  0.82277773  0.45999615    -0.16000
F1862       F  0.30409749  0.88555347  0.37180363    -0.14600
F1863       F  0.32746729  0.90264439  0.41306048    -0.14600
F1864       F  0.29262625  0.92263409  0.50902096    -0.16000
C1865       C  0.43145238  0.85653082  0.43129226     0.14000
C1866       C  0.43837567  0.87154705  0.44604377     0.01000
C1867       C  0.44555964  0.86726580  0.47648341     0.16000
C1868       C  0.44581299  0.84819471  0.49223433     0.25400
C1869       C  0.43874616  0.83298778  0.47801616    -0.40900
C1870       C  0.43157333  0.83744644  0.44716327     0.32400
C1871       C  0.43824846  0.89168031  0.42938677     0.01100
F1872       F  0.45244298  0.88157590  0.49070804    -0.13300
F1873       F  0.42460533  0.82345100  0.43232028    -0.13800
C1874       C  0.43327638  0.90753560  0.44902941     0.16000
C1875       C  0.43340389  0.92673286  0.43366455     0.25400
C1876       C  0.43869967  0.93045632  0.39850724    -0.40900
C1877       C  0.44354297  0.91429577  0.37872746     0.32400
C1878       C  0.44327876  0.89513054  0.39405365     0.14100
F1879       F  0.42822601  0.90435509  0.48305945    -0.13200
F1880       F  0.44848173  0.91688463  0.34432205    -0.13800
F1881       F  0.42837727  0.94161257  0.45339452    -0.16000
F1882       F  0.44808868  0.87991641  0.37461217    -0.14600
F1883       F  0.42445508  0.86046708  0.40175769    -0.14600
F1884       F  0.45301012  0.84475138  0.52144572    -0.16000
C1885       C  0.38359745  0.76541682  0.47778946     0.14000
C1886       C  0.37922879  0.75502228  0.44640089     0.01000
C1887       C  0.38658798  0.74443540  0.42282653     0.16000
C1888       C  0.39810810  0.74392496  0.43069208     0.25400
C1889       C  0.40255694  0.75404002  0.46242398    -0.40900
C1890       C  0.39519775  0.76507818  0.48559517     0.32400
C1891       C  0.36698259  0.75471695  0.43834302     0.01100
F1892       F  0.38255133  0.73417955  0.39253082    -0.13300
F1893       F  0.39915739  0.77495132  0.51645101    -0.13800
C1894       C  0.36266650  0.76428098  0.40599441     0.16000
C1895       C  0.35114625  0.76332060  0.39749419     0.25400
C1896       C  0.34377896  0.75231402  0.42071443    -0.40900
C1897       C  0.34821064  0.74239091  0.45272955     0.32400
C1898       C  0.35967024  0.74377856  0.46162803     0.14100
F1899       F  0.36965792  0.77445361  0.38249552    -0.13200
F1900       F  0.34143016  0.73150340  0.47580433    -0.13800
F1901       F  0.34727094  0.77262055  0.36589122    -0.16000
F1902       F  0.36369541  0.73401412  0.49252209    -0.14600
F1903       F  0.37661345  0.77583236  0.50087787    -0.14600
F1904       F  0.40494582  0.73360965  0.40692168    -0.16000
C1905       C  0.43084446  0.74700295  0.73064026     0.14000
C1906       C  0.43912639  0.75746400  0.75109909     0.01000
C1907       C  0.44665345  0.76984094  0.73167897     0.16000
C1908       C  0.44576359  0.77226422  0.69259419     0.25400
C1909       C  0.43736905  0.76215289  0.67186629    -0.40900
C1910       C  0.43001558  0.74922077  0.69114435     0.32400
C1911       C  0.43994711  0.75588100  0.79278353     0.01100
F1912       F  0.45503608  0.77935733  0.75062024    -0.13300
F1913       F  0.42190752  0.73912492  0.67198825    -0.13800
C1914       C  0.44223684  0.73755142  0.81006277     0.16000
C1915       C  0.44317955  0.73623170  0.84950452     0.25400
C1916       C  0.44186997  0.75330780  0.87241055    -0.40900
C1917       C  0.43996636  0.77178920  0.85472393     0.32400
C1918       C  0.43892284  0.77300087  0.81533807     0.14100
F1919       F  0.44369810  0.72096019  0.78867068    -0.13200
F1920       F  0.43867014  0.78863032  0.87547666    -0.13800
F1921       F  0.44538803  0.71819962  0.86517835    -0.16000
F1922       F  0.43662821  0.79088189  0.79918276    -0.14600
F1923       F  0.42344390  0.73499139  0.74901882    -0.14600
F1924       F  0.45340744  0.78408049  0.67485984    -0.16000
C1925       C  0.43451252  0.74683640  0.22770938     0.14000
C1926       C  0.43913781  0.76179858  0.25094579     0.01000
C1927       C  0.44387619  0.77868331  0.23378787     0.16000
C1928       C  0.44400800  0.78066055  0.19434145     0.25400
C1929       C  0.43954634  0.76558915  0.17080165    -0.40900
C1930       C  0.43479457  0.74862026  0.18804560     0.32400
C1931       C  0.43930679  0.75977865  0.29299224     0.01100
F1932       F  0.44877535  0.79305248  0.25527335    -0.13300
F1933       F  0.43034786  0.73377528  0.16663240    -0.13800
C1934       C  0.44418539  0.74302170  0.31020924     0.16000
C1935       C  0.44460552  0.74136043  0.34978934     0.25400
C1936       C  0.44016356  0.75647993  0.37318301    -0.40900
C1937       C  0.43545819  0.77343313  0.35578217     0.32400
C1938       C  0.43497116  0.77497317  0.31619414     0.14100
F1939       F  0.44870252  0.72831412  0.28867192    -0.13200
F1940       F  0.43086578  0.78821854  0.37693637    -0.13800
F1941       F  0.44939683  0.72488936  0.36512886    -0.16000
F1942       F  0.42994295  0.79112482  0.30047884    -0.14600
F1943       F  0.42962410  0.73053896  0.24342000    -0.14600
F1944       F  0.44894409  0.79709752  0.17932761    -0.16000
C1945       C  0.44705547  0.86828384  0.97228888     0.14000
C1946       C  0.44085200  0.87120296  0.93890836     0.01000
C1947       C  0.43545309  0.85492897  0.92192755     0.16000
C1948       C  0.43612658  0.83596115  0.93835751     0.25400
C1949       C  0.44230363  0.83286427  0.97219451    -0.40900
C1950       C  0.44779500  0.84937658  0.98880172     0.32400
C1951       C  0.44003575  0.89131213  0.92196236     0.01100
F1952       F  0.42952971  0.85743540  0.88930941    -0.13300
F1953       F  0.45376877  0.84742081  0.02143980    -0.13800
C1954       C  0.44880844  0.89870620  0.89939922     0.16000
C1955       C  0.44827525  0.91798121  0.88444319     0.25400
C1956       C  0.43896131  0.93038191  0.89214728    -0.40900
C1957       C  0.43009144  0.92272753  0.91443489     0.32400
C1958       C  0.43063344  0.90335946  0.92909911     0.14100
F1959       F  0.45792579  0.88720798  0.89190327    -0.13200
F1960       F  0.42078426  0.93381694  0.92151624    -0.13800
F1961       F  0.45699792  0.92455489  0.86292953    -0.16000
F1962       F  0.42200523  0.89637605  0.95056377    -0.14600
F1963       F  0.45230392  0.88388856  0.98920077    -0.14600
F1964       F  0.43065177  0.82072452  0.92109155    -0.16000
C1965       C  0.38657210  0.74296333  0.96818470     0.14000
C1966       C  0.38305840  0.75941358  0.94661753     0.01000
C1967       C  0.39086966  0.77443302  0.93799248     0.16000
C1968       C  0.40213520  0.77262696  0.94942250     0.25400
C1969       C  0.40578376  0.75570571  0.96969300    -0.40900
C1970       C  0.39780168  0.74107237  0.97948294     0.32400
C1971       C  0.37142223  0.76002342  0.93129520     0.01100
F1972       F  0.38772698  0.79031245  0.91669344    -0.13300
F1973       F  0.40089006  0.72469968  0.99949238    -0.13800
C1974       C  0.36384905  0.77510593  0.94187044     0.16000
C1975       C  0.35253254  0.77415628  0.93047567     0.25400
C1976       C  0.34864414  0.75800833  0.90865304    -0.40900
C1977       C  0.35639910  0.74360080  0.89634549     0.32400
C1978       C  0.36767152  0.74465404  0.90741230     0.14100
F1979       F  0.36724596  0.79006085  0.96509456    -0.13200
F1980       F  0.35297590  0.72814577  0.87436135    -0.13800
F1981       F  0.34522410  0.78816582  0.94316233    -0.16000
F1982       F  0.37490721  0.73031016  0.89562762    -0.14600
F1983       F  0.37912120  0.72847015  0.97771154    -0.14600
F1984       F  0.40959473  0.78681893  0.93846762    -0.16000
C1985       C  0.32341022  0.11249174  0.54067408     0.14000
C1986       C  0.31478170  0.12184266  0.56109893     0.01000
C1987       C  0.30623061  0.11012298  0.57738768     0.16000
C1988       C  0.30632714  0.08934111  0.57314331     0.25400
C1989       C  0.31503714  0.07996553  0.55272184    -0.40900
C1990       C  0.32360548  0.09189201  0.53675585     0.32400
C1991       C  0.31515569  0.14373504  0.56634183     0.01100
F1992       F  0.29788363  0.11876970  0.59783317    -0.13300
F1993       F  0.33225275  0.08370916  0.51699902    -0.13800
C1994       C  0.30635371  0.15604859  0.55369160     0.16000
C1995       C  0.30714043  0.17680669  0.55738895     0.25400
C1996       C  0.31675387  0.18556993  0.57391412    -0.40900
C1997       C  0.32562460  0.17307547  0.58579907     0.32400
C1998       C  0.32476432  0.15248420  0.58241788     0.14100
F1999       F  0.29706481  0.14799059  0.53732327    -0.13200
F2000       F  0.33522056  0.18070154  0.60091103    -0.13800
F2001       F  0.29841105  0.18822563  0.54548729    -0.16000
F2002       F  0.33333860  0.14098432  0.59537488    -0.14600
F2003       F  0.33166437  0.12341264  0.52399231    -0.14600
F2004       F  0.29778318  0.07851672  0.58826185    -0.16000
C2005       C  0.30699758  0.11367615  0.01987147     0.14000
C2006       C  0.30574662  0.12191967  0.05620243     0.01000
C2007       C  0.30399931  0.10906636  0.08733723     0.16000
C2008       C  0.30411991  0.08831336  0.08241461     0.25400
C2009       C  0.30614430  0.08014426  0.04635833    -0.40900
C2010       C  0.30720458  0.09305989  0.01500849     0.32400
C2011       C  0.30749190  0.14365480  0.06188533     0.01100
F2012       F  0.30253540  0.11664194  0.12270247    -0.13300
F2013       F  0.30875650  0.08567467  0.97950429    -0.13800
C2014       C  0.30088867  0.15786349  0.04276100     0.16000
C2015       C  0.30302876  0.17831210  0.04717073     0.25400
C2016       C  0.31183354  0.18497487  0.07088289    -0.40900
C2017       C  0.31854114  0.17053446  0.08936734     0.32400
C2018       C  0.31639139  0.15023817  0.08483721     0.14100
F2019       F  0.29225342  0.15193020  0.02019159    -0.13200
F2020       F  0.32725689  0.17591052  0.11211577    -0.13800
F2021       F  0.29638636  0.19151691  0.02855800    -0.16000
F2022       F  0.32323169  0.13690718  0.10233392    -0.14600
F2023       F  0.30872600  0.12558088  0.98928036    -0.14600
F2024       F  0.30296773  0.07629576  0.11313538    -0.16000
C2025       C  0.30881480  0.24580625  0.81658867     0.14000
C2026       C  0.31613057  0.25932766  0.83443465     0.01000
C2027       C  0.32304873  0.27161590  0.81206134     0.16000
C2028       C  0.32260269  0.27051447  0.77250484     0.25400
C2029       C  0.31537511  0.25685758  0.75470628    -0.40900
C2030       C  0.30853191  0.24443139  0.77701317     0.32400
C2031       C  0.31631086  0.26115802  0.87628074     0.01100
F2032       F  0.33044751  0.28435081  0.82860663    -0.13300
F2033       F  0.30148943  0.23110283  0.76040880    -0.13800
C2034       C  0.31851628  0.24461285  0.89950555     0.16000
C2035       C  0.31854655  0.24654414  0.93909006     0.25400
C2036       C  0.31638460  0.26512503  0.95618164    -0.40900
C2037       C  0.31422932  0.28166660  0.93250869     0.32400
C2038       C  0.31416570  0.27964007  0.89314523     0.14100
F2039       F  0.32069956  0.22658020  0.88383462    -0.13200
F2040       F  0.31170267  0.29978311  0.94721956    -0.13800
F2041       F  0.32065226  0.23018619  0.96053373    -0.16000
F2042       F  0.31160250  0.29569464  0.87140046    -0.14600
F2043       F  0.30181693  0.23416672  0.83746125    -0.14600
F2044       F  0.32963798  0.28209188  0.75162477    -0.16000
C2045       C  0.30808205  0.27260847  0.31265601     0.14000
C2046       C  0.31224680  0.25689785  0.33500177     0.01000
C2047       C  0.31569088  0.23930460  0.31710049     0.16000
C2048       C  0.31511219  0.23745514  0.27771593     0.25400
C2049       C  0.31132128  0.25342831  0.25487796    -0.40900
C2050       C  0.30769946  0.27098015  0.27299957     0.32400
C2051       C  0.31301623  0.25879084  0.37692831     0.01100
F2052       F  0.31999997  0.22402143  0.33769030    -0.13300
F2053       F  0.30377387  0.28660430  0.25251202    -0.13800
C2054       C  0.30799085  0.24448365  0.40066704     0.16000
C2055       C  0.30857076  0.24639235  0.44013215     0.25400
C2056       C  0.31400127  0.26284386  0.45665607    -0.40900
C2057       C  0.31914112  0.27704204  0.43298421     0.32400
C2058       C  0.31878846  0.27487925  0.39348767     0.14100
F2059       F  0.30217665  0.22897495  0.38563733    -0.13200
F2060       F  0.32460951  0.29291203  0.44811398    -0.13800
F2061       F  0.30331442  0.23265910  0.46217035    -0.16000
F2062       F  0.32419712  0.28839398  0.37138911    -0.14600
F2063       F  0.30428843  0.28952470  0.32930690    -0.14600
F2064       F  0.31866795  0.22009320  0.26212445    -0.16000
C2065       C  0.44946152  0.10635421  0.79307856     0.14000
C2066       C  0.44420109  0.12038979  0.81658262     0.01000
C2067       C  0.43730173  0.11391545  0.84629620     0.16000
C2068       C  0.43529825  0.09368988  0.85174397     0.25400
C2069       C  0.44010243  0.07941628  0.82719811    -0.40900
C2070       C  0.44750586  0.08596747  0.79847254     0.32400
C2071       C  0.44435520  0.14170512  0.80694690     0.01100
F2072       F  0.43212928  0.12732970  0.86921086    -0.13300
F2073       F  0.45256157  0.07277964  0.77483421    -0.13800
C2074       C  0.43522361  0.14955744  0.78690403     0.16000
C2075       C  0.43458698  0.16985434  0.77955694     0.25400
C2076       C  0.44310934  0.18290003  0.79231638    -0.40900
C2077       C  0.45238304  0.17491341  0.81215788     0.32400
C2078       C  0.45298006  0.15439959  0.81944703     0.14100
F2079       F  0.42680499  0.13745863  0.77470686    -0.13200
F2080       F  0.46095294  0.18681191  0.82377762    -0.13800
F2081       F  0.42549059  0.17666913  0.76018114    -0.16000
F2082       F  0.46189150  0.14694118  0.83889335    -0.14600
F2083       F  0.45608419  0.11245881  0.76391984    -0.14600
F2084       F  0.42852716  0.08819737  0.88097939    -0.16000
C2085       C  0.39019713  0.24324392  0.71259545     0.14000
C2086       C  0.38619973  0.25916324  0.69039541     0.01000
C2087       C  0.39382226  0.27411444  0.67924918     0.16000
C2088       C  0.40530686  0.27250338  0.68817865     0.25400
C2089       C  0.40937674  0.25574743  0.70786978    -0.40900
C2090       C  0.40165299  0.24148193  0.72098547     0.32400
C2091       C  0.37428885  0.25916954  0.67692309     0.01100
F2092       F  0.39026867  0.28974404  0.65803291    -0.13300
F2093       F  0.40521260  0.22576940  0.74202694    -0.13800
C2094       C  0.36700507  0.27526511  0.68396655     0.16000
C2095       C  0.35561712  0.27431166  0.67302366     0.25400
C2096       C  0.35127708  0.25710137  0.65538495    -0.40900
C2097       C  0.35870791  0.24134779  0.64733090     0.32400
C2098       C  0.37006250  0.24247634  0.65754546     0.14100
F2099       F  0.37077175  0.29149074  0.70308122    -0.13200
F2100       F  0.35494315  0.22462405  0.62983543    -0.13800
F2101       F  0.34870952  0.28970207  0.68180112    -0.16000
F2102       F  0.37696107  0.22706196  0.64873308    -0.14600
F2103       F  0.38298981  0.22916713  0.72576670    -0.14600
F2104       F  0.41251725  0.28677512  0.67576638    -0.16000
C2105       C  0.44837936  0.15483034  0.32127049     0.14000
C2106       C  0.43988120  0.14231212  0.30694564     0.01000
C2107       C  0.43056285  0.15089463  0.28885948     0.16000
C2108       C  0.42983902  0.17151695  0.28417892     0.25400
C2109       C  0.43843448  0.18423126  0.29771616    -0.40900
C2110       C  0.44768178  0.17558330  0.31670573     0.32400
C2111       C  0.44037721  0.12034298  0.31194472     0.01100
F2112       F  0.42202794  0.13923146  0.27608515    -0.13300
F2113       F  0.45623716  0.18708735  0.32980029    -0.13800
C2114       C  0.43958021  0.11208032  0.34840262     0.16000
C2115       C  0.43877211  0.09147644  0.35316227     0.25400
C2116       C  0.43881948  0.07858923  0.32155484    -0.40900
C2117       C  0.44002635  0.08677387  0.28507141     0.32400
C2118       C  0.44072551  0.10751317  0.28030179     0.14100
F2119       F  0.43906189  0.12404127  0.37940306    -0.13200
F2120       F  0.43991298  0.07482653  0.25402394    -0.13800
F2121       F  0.43781854  0.08408975  0.38891463    -0.16000
F2122       F  0.44151816  0.11514010  0.24472704    -0.14600
F2123       F  0.45749298  0.14690064  0.33889695    -0.14600
F2124       F  0.42065693  0.17896328  0.26618533    -0.16000
C2125       C  0.44096662  0.24759425  0.47069107     0.14000
C2126       C  0.44794278  0.26079193  0.49096677     0.01000
C2127       C  0.45414399  0.27508386  0.47091583     0.16000
C2128       C  0.45323126  0.27651599  0.43149479     0.25400
C2129       C  0.44608387  0.26355386  0.41093061    -0.40900
C2130       C  0.44010865  0.24884166  0.43108005     0.32400
C2131       C  0.44872986  0.25970854  0.53299186     0.01100
F2132       F  0.46129576  0.28748659  0.48950048    -0.13300
F2133       F  0.43330360  0.23579459  0.41266456    -0.13800
C2134       C  0.45167048  0.24178988  0.55081403     0.16000
C2135       C  0.45163416  0.24030767  0.59036731     0.25400
C2136       C  0.44866365  0.25678597  0.61311574    -0.40900
C2137       C  0.44639454  0.27507187  0.59523232     0.32400
C2138       C  0.44636148  0.27647366  0.55554920     0.14100
F2139       F  0.45449900  0.22560553  0.52983945    -0.13200
F2140       F  0.44355380  0.29132858  0.61594769    -0.13800
F2141       F  0.45434614  0.22255881  0.60632983    -0.16000
F2142       F  0.44346277  0.29400403  0.53913825    -0.14600
F2143       F  0.43477402  0.23371813  0.48935920    -0.14600
F2144       F  0.45959464  0.29042967  0.41356755    -0.16000
C2145       C  0.43466593  0.27057021  0.97356635     0.14000
C2146       C  0.44058698  0.25489559  0.99076803     0.01000
C2147       C  0.44556369  0.24025698  0.96767637     0.16000
C2148       C  0.44493813  0.24163355  0.92811513     0.25400
C2149       C  0.43945538  0.25783981  0.91091195    -0.40900
C2150       C  0.43415248  0.27208676  0.93405240     0.32400
C2151       C  0.44145643  0.25368747  0.03271890     0.01100
F2152       F  0.45148014  0.22507648  0.98340500    -0.13300
F2153       F  0.42858152  0.28767863  0.91836620    -0.13800
C2154       C  0.43805523  0.23633576  0.05155535     0.16000
C2155       C  0.43868289  0.23505361  0.09096730     0.25400
C2156       C  0.44256256  0.25130052  0.11283359    -0.40900
C2157       C  0.44596136  0.26875696  0.09391624     0.32400
C2158       C  0.44551660  0.26984892  0.05419200     0.14100
F2159       F  0.43372191  0.22075342  0.03183551    -0.13200
F2160       F  0.44976742  0.28473006  0.11370767    -0.13800
F2161       F  0.43500795  0.21803488  0.10764808    -0.16000
F2162       F  0.44914631  0.28665418  0.03665642    -0.14600
F2163       F  0.42938460  0.28447634  0.99505834    -0.14600
F2164       F  0.45034910  0.22782382  0.90674015    -0.16000
C2165       C  0.39104251  0.24891986  0.16295764     0.14000
C2166       C  0.38380636  0.26042177  0.18553527     0.01000
C2167       C  0.38836746  0.27119518  0.21620894     0.16000
C2168       C  0.39987817  0.26953959  0.22530185     0.25400
C2169       C  0.40692231  0.25686467  0.20411790    -0.40900
C2170       C  0.40241566  0.24709396  0.17216763     0.32400
C2171       C  0.37144413  0.25920443  0.17887285     0.01100
F2172       F  0.38158379  0.28247078  0.23847740    -0.13300
F2173       F  0.40905715  0.23566303  0.14964099    -0.13800
C2174       C  0.36617340  0.24054500  0.18035929     0.16000
C2175       C  0.35478025  0.23845122  0.17165990     0.25400
C2176       C  0.34818753  0.25508137  0.16127529    -0.40900
C2177       C  0.35343201  0.27399332  0.16088833     0.32400
C2178       C  0.36495358  0.27599451  0.16957907     0.14100
F2179       F  0.37211540  0.22415038  0.19059022    -0.13200
F2180       F  0.34748055  0.29057294  0.15197542    -0.13800
F2181       F  0.35025013  0.21994529  0.17394463    -0.16000
F2182       F  0.36981798  0.29425185  0.16807187    -0.14600
F2183       F  0.38699472  0.23898169  0.13228257    -0.14600
F2184       F  0.40398064  0.27949009  0.25584567    -0.16000
C2185       C  0.30895776  0.61032839  0.82936374     0.14000
C2186       C  0.31642466  0.62214143  0.80797134     0.01000
C2187       C  0.32410963  0.61276481  0.78369410     0.16000
C2188       C  0.32445281  0.59208093  0.78100466     0.25400
C2189       C  0.31691718  0.58004661  0.80203732    -0.40900
C2190       C  0.30914788  0.58948453  0.82628664     0.32400
C2191       C  0.31652589  0.64418477  0.81161803     0.01100
F2192       F  0.33121030  0.62370859  0.76183342    -0.13300
F2193       F  0.30161910  0.57864468  0.84658816    -0.13800
C2194       C  0.32653146  0.65408642  0.82153966     0.16000
C2195       C  0.32666614  0.67470411  0.82623766     0.25400
C2196       C  0.31677029  0.68596007  0.82140902    -0.40900
C2197       C  0.30685995  0.67619067  0.80989125     0.32400
C2198       C  0.30674526  0.65547144  0.80505195     0.14100
F2199       F  0.33614095  0.64370028  0.82799886    -0.13200
F2200       F  0.29715207  0.68652106  0.80514837    -0.13800
F2201       F  0.33649652  0.68363276  0.83617406    -0.16000
F2202       F  0.29706291  0.64640634  0.79410362    -0.14600
F2203       F  0.30156750  0.61897686  0.85363966    -0.14600
F2204       F  0.33217389  0.58395646  0.75720889    -0.16000
C2205       C  0.30401536  0.39856285  0.71815202     0.14000
C2206       C  0.31317400  0.39354632  0.69499241     0.01000
C2207       C  0.32162044  0.40771919  0.68829366     0.16000
C2208       C  0.32083004  0.42678997  0.70419842     0.25400
C2209       C  0.31159382  0.43195635  0.72749570    -0.40900
C2210       C  0.30323980  0.41747608  0.73442076     0.32400
C2211       C  0.31367875  0.37353369  0.67754635     0.01100
F2212       F  0.33057065  0.40315006  0.66599879    -0.13300
F2213       F  0.29420678  0.42158638  0.75663707    -0.13800
C2214       C  0.30606379  0.36839182  0.64877428     0.16000
C2215       C  0.30580645  0.34905135  0.63416703     0.25400
C2216       C  0.31323527  0.33432423  0.64801859    -0.40900
C2217       C  0.32096414  0.33970277  0.67679103     0.32400
C2218       C  0.32118547  0.35913408  0.69124750     0.14100
F2219       F  0.29881637  0.38219250  0.63486226    -0.13200
F2220       F  0.32825123  0.32617533  0.69139737    -0.13800
F2221       F  0.29817962  0.34483224  0.60660949    -0.16000
F2222       F  0.32854689  0.36378434  0.71937271    -0.14600
F2223       F  0.29582110  0.38497758  0.72524346    -0.14600
F2224       F  0.32920730  0.44004353  0.69717523    -0.16000
C2225       C  0.31410108  0.61447209  0.28311315     0.14000
C2226       C  0.30859351  0.62164235  0.31554552     0.01000
C2227       C  0.30424014  0.60790071  0.34194710     0.16000
C2228       C  0.30556493  0.58737840  0.33631576     0.25400
C2229       C  0.31124785  0.58017487  0.30404870    -0.40900
C2230       C  0.31534802  0.59405811  0.27724851     0.32400
C2231       C  0.30816279  0.64340398  0.32291189     0.01100
F2232       F  0.29869554  0.61437161  0.37328227    -0.13300
F2233       F  0.32055232  0.58798580  0.24495874    -0.13800
C2234       C  0.30387915  0.65674710  0.29563317     0.16000
C2235       C  0.30443353  0.67736623  0.30161835     0.25400
C2236       C  0.30925169  0.68500942  0.33509271    -0.40900
C2237       C  0.31323690  0.67150583  0.36274056     0.32400
C2238       C  0.31276118  0.65103932  0.35656692     0.14100
F2239       F  0.29918858  0.64980129  0.26308264    -0.13200
F2240       F  0.31765612  0.67801472  0.39607061    -0.13800
F2241       F  0.30049739  0.68978378  0.27429222    -0.16000
F2242       F  0.31720007  0.63866850  0.38310719    -0.14600
F2243       F  0.31863329  0.62728763  0.25751755    -0.14600
F2244       F  0.30140688  0.57463530  0.36271706    -0.16000
C2245       C  0.30365869  0.49037162  0.48471283     0.14000
C2246       C  0.31107474  0.50368298  0.50238218     0.01000
C2247       C  0.31837909  0.51521753  0.47993810     0.16000
C2248       C  0.31814541  0.51362213  0.44025660     0.25400
C2249       C  0.31057549  0.50046709  0.42244358    -0.40900
C2250       C  0.30337166  0.48879416  0.44526374     0.32400
C2251       C  0.31083242  0.50586066  0.54417446     0.01100
F2252       F  0.32582662  0.52784222  0.49652022    -0.13300
F2253       F  0.29573494  0.47623454  0.42946298    -0.13800
C2254       C  0.31295212  0.48945042  0.56773982     0.16000
C2255       C  0.31227538  0.49128921  0.60721557     0.25400
C2256       C  0.30947703  0.50970266  0.62405349    -0.40900
C2257       C  0.30718243  0.52605133  0.60003642     0.32400
C2258       C  0.30789934  0.52411931  0.56060524     0.14100
F2259       F  0.31593980  0.47168539  0.55246188    -0.13200
F2260       F  0.30431681  0.54406011  0.61449887    -0.13800
F2261       F  0.31470824  0.47510773  0.62876608    -0.16000
F2262       F  0.30557919  0.54008741  0.53834577    -0.14600
F2263       F  0.29641612  0.47927188  0.50572832    -0.14600
F2264       F  0.32545223  0.52465179  0.41939371    -0.16000
C2265       C  0.30808004  0.48855825  0.06750808     0.14000
C2266       C  0.30929542  0.50534135  0.04403584     0.01000
C2267       C  0.30933100  0.52430860  0.06045915     0.16000
C2268       C  0.30853637  0.52656407  0.09969637     0.25400
C2269       C  0.30765255  0.50978359  0.12372815    -0.40900
C2270       C  0.30721367  0.49072481  0.10694228     0.32400
C2271       C  0.31014497  0.50332316  0.00227279     0.01100
F2272       F  0.31009247  0.54079678  0.03834103    -0.13300
F2273       F  0.30619833  0.47408830  0.12854183    -0.13800
C2274       C  0.30150252  0.49390209  0.98200500     0.16000
C2275       C  0.30189050  0.49295137  0.94248814     0.25400
C2276       C  0.31093074  0.50150904  0.92224501    -0.40900
C2277       C  0.31956904  0.51106628  0.94251806     0.32400
C2278       C  0.31922863  0.51179764  0.98227024     0.14100
F2279       F  0.29246662  0.48616060  0.00043968    -0.13200
F2280       F  0.32845040  0.51926326  0.92399775    -0.13800
F2281       F  0.29318805  0.48413992  0.92394194    -0.16000
F2282       F  0.32782509  0.52061002  0.00133100    -0.14600
F2283       F  0.30804592  0.46999867  0.05232638    -0.14600
F2284       F  0.30891669  0.54531700  0.11391888    -0.16000
C2285       C  0.30203450  0.36621313  0.15490585     0.14000
C2286       C  0.31017545  0.37210048  0.18149826     0.01000
C2287       C  0.31856339  0.35851945  0.19227902     0.16000
C2288       C  0.31874138  0.33926110  0.17698926     0.25400
C2289       C  0.31054821  0.33321255  0.15033507    -0.40900
C2290       C  0.30222099  0.34706194  0.13934418     0.32400
C2291       C  0.30977224  0.39238676  0.19808379     0.01100
F2292       F  0.32651605  0.36383756  0.21803643    -0.13300
F2293       F  0.29416522  0.34214339  0.11365170    -0.13800
C2294       C  0.30056967  0.39816710  0.22046606     0.16000
C2295       C  0.29990188  0.41747957  0.23512014     0.25400
C2296       C  0.30848041  0.43151313  0.22777286    -0.40900
C2297       C  0.31770665  0.42561839  0.20518417     0.32400
C2298       C  0.31834616  0.40623797  0.19063876     0.14100
F2299       F  0.29224117  0.38497079  0.22843973    -0.13200
F2300       F  0.32622476  0.43847816  0.19754138    -0.13800
F2301       F  0.29074587  0.42243545  0.25612091    -0.16000
F2302       F  0.32727303  0.40106631  0.16873494    -0.14600
F2303       F  0.29395120  0.37919257  0.14359445    -0.14600
F2304       F  0.32706842  0.32668400  0.18788538    -0.16000
C2305       C  0.42859725  0.65116750  0.53520963     0.14000
C2306       C  0.43657228  0.64316808  0.56011711     0.01000
C2307       C  0.44355765  0.65601141  0.58100044     0.16000
C2308       C  0.44265735  0.67666631  0.57672280     0.25400
C2309       C  0.43467854  0.68481653  0.55154316    -0.40900
C2310       C  0.42761502  0.67172259  0.53096583     0.32400
C2311       C  0.43686295  0.62149116  0.56676770     0.01100
F2312       F  0.45128369  0.64848275  0.60547819    -0.13300
F2313       F  0.41965917  0.67869076  0.50668755    -0.13800
C2314       C  0.44042265  0.60821523  0.53837737     0.16000
C2315       C  0.44022646  0.58761102  0.54490120     0.25400
C2316       C  0.43630708  0.58004507  0.57980316    -0.40900
C2317       C  0.43276355  0.59359405  0.60804060     0.32400
C2318       C  0.43303957  0.61401731  0.60149108     0.14100
F2319       F  0.44409083  0.61524183  0.50442903    -0.13200
F2320       F  0.42910129  0.58717963  0.64244601    -0.13800
F2321       F  0.44366110  0.57514575  0.51691398    -0.16000
F2322       F  0.42931789  0.62658258  0.62892434    -0.14600
F2323       F  0.42152465  0.63902672  0.51567584    -0.14600
F2324       F  0.44966558  0.68858835  0.59696059    -0.16000
C2325       C  0.43587777  0.40763921  0.70047754     0.14000
C2326       C  0.44273020  0.39298259  0.68430726     0.01000
C2327       C  0.44933754  0.39759181  0.65260132     0.16000
C2328       C  0.44913405  0.41670091  0.63707808     0.25400
C2329       C  0.44222029  0.43162126  0.65298618    -0.40900
C2330       C  0.43556942  0.42678044  0.68494834     0.32400
C2331       C  0.44289306  0.37268248  0.69995846     0.01100
F2332       F  0.45602744  0.38350549  0.63671317    -0.13300
F2333       F  0.42862967  0.44041029  0.70102153    -0.13800
C2334       C  0.43736127  0.35727682  0.68076687     0.16000
C2335       C  0.43794937  0.33778794  0.69431094     0.25400
C2336       C  0.44426083  0.33329980  0.72719515    -0.40900
C2337       C  0.44956982  0.34904378  0.74689219     0.32400
C2338       C  0.44886324  0.36854399  0.73332083     0.14100
F2339       F  0.43135679  0.36116878  0.64882277    -0.13200
F2340       F  0.45547384  0.34569434  0.77927605    -0.13800
F2341       F  0.43229516  0.32340003  0.67511121    -0.16000
F2342       F  0.45418502  0.38338132  0.75236377    -0.14600
F2343       F  0.42931908  0.40326620  0.73091487    -0.14600
F2344       F  0.45569091  0.42043441  0.60633174    -0.16000
C2345       C  0.36316907  0.51979906  0.67560404     0.14000
C2346       C  0.36963252  0.50484308  0.69255397     0.01000
C2347       C  0.36448487  0.49125260  0.71729966     0.16000
C2348       C  0.35302417  0.49309606  0.72612687     0.25400
C2349       C  0.34660854  0.50878934  0.71061956    -0.40900
C2350       C  0.35181071  0.52182808  0.68450479     0.32400
C2351       C  0.38193441  0.50507123  0.68721241     0.01100
F2352       F  0.37066364  0.47672966  0.73406743    -0.13300
F2353       F  0.34596318  0.53670884  0.66748214    -0.13800
C2354       C  0.38818535  0.52056880  0.70337526     0.16000
C2355       C  0.39965716  0.52236097  0.69605419     0.25400
C2356       C  0.40516265  0.50868875  0.67202110    -0.40900
C2357       C  0.39889333  0.49276933  0.65658274     0.32400
C2358       C  0.38734295  0.49101040  0.66416903     0.14100
F2359       F  0.38308697  0.53420888  0.72599350    -0.13200
F2360       F  0.40380958  0.47932838  0.63312161    -0.13800
F2361       F  0.40534598  0.53756241  0.71270007    -0.16000
F2362       F  0.38135612  0.47604835  0.64795655    -0.14600
F2363       F  0.36797491  0.53279401  0.65091766    -0.14600
F2364       F  0.34834915  0.47992619  0.75072924    -0.16000
C2365       C  0.44837489  0.65697790  0.09218631     0.14000
C2366       C  0.44544270  0.64388509  0.06256727     0.01000
C2367       C  0.44238100  0.65169154  0.02717861     0.16000
C2368       C  0.44147278  0.67217906  0.02213412     0.25400
C2369       C  0.44352728  0.68534476  0.05251824    -0.40900
C2370       C  0.44750923  0.67763108  0.08711115     0.32400
C2371       C  0.44403063  0.62232302  0.06953558     0.01100
F2372       F  0.43952914  0.63941155  0.99811381    -0.13300
F2373       F  0.44994617  0.68993247  0.11654012    -0.13800
C2374       C  0.43570407  0.61591997  0.09491788     0.16000
C2375       C  0.43332117  0.59571686  0.09904419     0.25400
C2376       C  0.43930119  0.58130564  0.07793180    -0.40900
C2377       C  0.44764996  0.58781558  0.05232834     0.32400
C2378       C  0.44996354  0.60814841  0.04814067     0.14100
F2379       F  0.42956779  0.62936453  0.11487709    -0.13200
F2380       F  0.45351518  0.57458631  0.03102841    -0.13800
F2381       F  0.42511360  0.59040590  0.12388838    -0.16000
F2382       F  0.45797366  0.61403276  0.02306175    -0.14600
F2383       F  0.45166424  0.64970185  0.12638326    -0.14600
F2384       F  0.43831827  0.67912636  0.98752367    -0.16000
C2385       C  0.44690044  0.48837321  0.90018839     0.14000
C2386       C  0.44201427  0.50445683  0.88101023     0.01000
C2387       C  0.43622487  0.51903787  0.90196554     0.16000
C2388       C  0.43526181  0.51741271  0.94156640     0.25400
C2389       C  0.44000767  0.50107788  0.96074507    -0.40900
C2390       C  0.44593194  0.48668406  0.93953385     0.32400
C2391       C  0.44281799  0.50565688  0.83907281     0.01100
F2392       F  0.43131374  0.53462881  0.88395976    -0.13300
F2393       F  0.45117858  0.47125059  0.95699680    -0.13800
C2394       C  0.43813978  0.49055871  0.81644128     0.16000
C2395       C  0.43864665  0.49173352  0.77683780     0.25400
C2396       C  0.44377076  0.50817034  0.75901306    -0.40900
C2397       C  0.44879536  0.52295439  0.78181957     0.32400
C2398       C  0.44833121  0.52167437  0.82148239     0.14100
F2399       F  0.43265324  0.47503419  0.83276010    -0.13200
F2400       F  0.45408600  0.53874979  0.76572025    -0.13800
F2401       F  0.43350284  0.47736070  0.75602560    -0.16000
F2402       F  0.45326619  0.53608094  0.84276831    -0.14600
F2403       F  0.45283546  0.47444569  0.88077273    -0.14600
F2404       F  0.42952353  0.53158140  0.96098724    -0.16000
C2405       C  0.44254568  0.49810461  0.31863469     0.14000
C2406       C  0.43410150  0.50805127  0.33929525     0.01000
C2407       C  0.42629149  0.51985585  0.31966048     0.16000
C2408       C  0.42693551  0.52181142  0.28024965     0.25400
C2409       C  0.43524394  0.51157952  0.25940616    -0.40900
C2410       C  0.44301781  0.49963082  0.27900406     0.32400
C2411       C  0.43341269  0.50599394  0.38120891     0.01100
F2412       F  0.41782420  0.52910749  0.33854689    -0.13300
F2413       F  0.45125212  0.48984769  0.25994441    -0.13800
C2414       C  0.43332591  0.52286856  0.40480961     0.16000
C2415       C  0.43339878  0.52081714  0.44435654     0.25400
C2416       C  0.43374634  0.50179091  0.46119114    -0.40900
C2417       C  0.43314718  0.48492819  0.43730988     0.32400
C2418       C  0.43297719  0.48705159  0.39787369     0.14100
F2419       F  0.43367276  0.54141177  0.38960629    -0.13200
F2420       F  0.43287846  0.46623885  0.45190176    -0.13800
F2421       F  0.43359264  0.53753589  0.46594404    -0.16000
F2422       F  0.43244028  0.47049854  0.37585946    -0.14600
F2423       F  0.45047597  0.48718073  0.33693470    -0.14600
F2424       F  0.41916185  0.53326793  0.26236391    -0.16000
C2425       C  0.45118772  0.40022492  0.14993179     0.14000
C2426       C  0.44278274  0.39254119  0.17368210     0.01000
C2427       C  0.43407165  0.40507171  0.18600381     0.16000
C2428       C  0.43380518  0.42510205  0.17495202     0.25400
C2429       C  0.44225857  0.43294852  0.15114407    -0.40900
C2430       C  0.45094722  0.42015017  0.13870271     0.32400
C2431       C  0.44343658  0.37168913  0.18703331     0.01100
F2432       F  0.42591509  0.39794896  0.20931425    -0.13300
F2433       F  0.45929959  0.42682062  0.11566042    -0.13800
C2434       C  0.45214710  0.36594424  0.21148926     0.16000
C2435       C  0.45271346  0.34648652  0.22529166     0.25400
C2436       C  0.44456093  0.33216318  0.21472435    -0.40900
C2437       C  0.43594164  0.33796418  0.18941266     0.32400
C2438       C  0.43539382  0.35755727  0.17581137     0.14100
F2439       F  0.46000503  0.37939212  0.22275242    -0.13200
F2440       F  0.42789607  0.32485661  0.17829495    -0.13800
F2441       F  0.46124755  0.34185550  0.24935298    -0.16000
F2442       F  0.42702785  0.36275061  0.15150607    -0.14600
F2443       F  0.45962295  0.38832309  0.13732923    -0.14600
F2444       F  0.42519687  0.43668085  0.18725678    -0.16000
C2445       C  0.38249402  0.51936763  0.14899433     0.14000
C2446       C  0.37888812  0.50499361  0.17524236     0.01000
C2447       C  0.38661075  0.49071340  0.18826551     0.16000
C2448       C  0.39795432  0.49164536  0.17718866     0.25400
C2449       C  0.40173665  0.50693521  0.15292047    -0.40900
C2450       C  0.39377914  0.52031202  0.13787315     0.32400
C2451       C  0.36725560  0.50582517  0.19056014     0.01100
F2452       F  0.38330791  0.47662093  0.21352485    -0.13300
F2453       F  0.39700239  0.53474262  0.11318016    -0.13800
C2454       C  0.35952145  0.49044936  0.18345443     0.16000
C2455       C  0.34834398  0.49206295  0.19590290     0.25400
C2456       C  0.34472049  0.50914747  0.21551742    -0.40900
C2457       C  0.35257814  0.52423584  0.22358333     0.32400
C2458       C  0.36373944  0.52253895  0.21138145     0.14100
F2459       F  0.36267095  0.47429299  0.16298029    -0.13200
F2460       F  0.34942789  0.54070145  0.24319427    -0.13800
F2461       F  0.34091325  0.47747096  0.18679976    -0.16000
F2462       F  0.37113555  0.53732277  0.21967382    -0.14600
F2463       F  0.37510456  0.53287320  0.13488266    -0.14600
F2464       F  0.40535608  0.47852185  0.19247092    -0.16000
C2465       C  0.25831661  0.49538511  0.84430221     0.14000
C2466       C  0.25653245  0.51182805  0.86815664     0.01000
C2467       C  0.26514055  0.52602536  0.87206167     0.16000
C2468       C  0.27549037  0.52344669  0.85369651     0.25400
C2469       C  0.27750438  0.50649866  0.83091979    -0.40900
C2470       C  0.26865667  0.49274751  0.82583127     0.32400
C2471       C  0.24557984  0.51444357  0.88803709     0.01100
F2472       F  0.26367802  0.54208846  0.89489122    -0.13300
F2473       F  0.27002655  0.47653788  0.80335696    -0.13800
C2474       C  0.24140797  0.49981436  0.91296237     0.16000
C2475       C  0.23071029  0.50180704  0.92957935     0.25400
C2476       C  0.22400839  0.51862931  0.92190755    -0.40900
C2477       C  0.22849043  0.53359315  0.89790885     0.32400
C2478       C  0.23907277  0.53143112  0.88116014     0.14100
F2479       F  0.24769427  0.48351057  0.92105308    -0.13200
F2480       F  0.22242173  0.55000263  0.88867827    -0.13800
F2481       F  0.22688475  0.48713852  0.95269889    -0.16000
F2482       F  0.24273917  0.54560493  0.85661117    -0.14600
F2483       F  0.24999304  0.48184908  0.83877743    -0.14600
F2484       F  0.28369866  0.53713601  0.85992730    -0.16000
C2485       C  0.26215359  0.52323795  0.37092496     0.14000
C2486       C  0.25333266  0.51032191  0.36096707     0.01000
C2487       C  0.25538515  0.49510828  0.33448609     0.16000
C2488       C  0.26616969  0.49239084  0.31928529     0.25400
C2489       C  0.27510662  0.50494624  0.33005604    -0.40900
C2490       C  0.27291503  0.52063979  0.35559583     0.32400
C2491       C  0.24204850  0.51259830  0.37858066     0.01100
F2492       F  0.24692684  0.48282391  0.32340426    -0.13300
F2493       F  0.28133354  0.53277099  0.36766889    -0.13800
C2494       C  0.23614401  0.53054778  0.37504842     0.16000
C2495       C  0.22545981  0.53271248  0.39110886     0.25400
C2496       C  0.22032972  0.51684299  0.41109334    -0.40900
C2497       C  0.22643251  0.49896043  0.41527293     0.32400
C2498       C  0.23716011  0.49690717  0.39918277     0.14100
F2499       F  0.24059477  0.54588717  0.35493821    -0.13200
F2500       F  0.22202700  0.48329890  0.43454943    -0.13800
F2501       F  0.22007185  0.55030809  0.38600108    -0.16000
F2502       F  0.24283079  0.47956592  0.40394135    -0.14600
F2503       F  0.26046866  0.53785700  0.39689903    -0.14600
F2504       F  0.26788873  0.47736341  0.29423492    -0.16000
C2505       C  0.18690737  0.52779216  0.68743173     0.14000
C2506       C  0.19121177  0.51221460  0.70980283     0.01000
C2507       C  0.19618118  0.49579115  0.69190007     0.16000
C2508       C  0.19656195  0.49466606  0.65233949     0.25400
C2509       C  0.19193187  0.50994356  0.62976656    -0.40900
C2510       C  0.18729479  0.52670871  0.64778134     0.32400
C2511       C  0.19070096  0.51329107  0.75177879     0.01100
F2512       F  0.20067110  0.48078228  0.71276259    -0.13300
F2513       F  0.18247254  0.54146324  0.62716752    -0.13800
C2514       C  0.18550460  0.49814727  0.77316943     0.16000
C2515       C  0.18507320  0.49939208  0.81285998     0.25400
C2516       C  0.18968206  0.51595097  0.83168634    -0.40900
C2517       C  0.19507962  0.53083992  0.81014900     0.32400
C2518       C  0.19556721  0.52950855  0.77068789     0.14100
F2519       F  0.18066786  0.48233435  0.75558574    -0.13200
F2520       F  0.20028561  0.54640545  0.82737095    -0.13800
F2521       F  0.17997633  0.48461992  0.83275507    -0.16000
F2522       F  0.20106064  0.54388017  0.75090673    -0.14600
F2523       F  0.18187747  0.54369402  0.70401396    -0.14600
F2524       F  0.20132127  0.47840614  0.63609766    -0.16000
C2525       C  0.18532981  0.52293767  0.18849194     0.14000
C2526       C  0.18331457  0.50567867  0.21007200     0.01000
C2527       C  0.18249492  0.48731530  0.19143367     0.16000
C2528       C  0.18385287  0.48605466  0.15221166     0.25400
C2529       C  0.18577520  0.50330749  0.13015033    -0.40900
C2530       C  0.18648795  0.52181018  0.14893560     0.32400
C2531       C  0.18250252  0.50653400  0.25210733     0.01100
F2532       F  0.18019097  0.47047020  0.21125301    -0.13300
F2533       F  0.18820111  0.53889421  0.12920386    -0.13800
C2534       C  0.17491007  0.51950599  0.27009903     0.16000
C2535       C  0.17469738  0.52096020  0.30975217     0.25400
C2536       C  0.18184007  0.50904389  0.33209271    -0.40900
C2537       C  0.18901043  0.49537439  0.31411397     0.32400
C2538       C  0.18946481  0.49435535  0.27455180     0.14100
F2539       F  0.16774469  0.53083828  0.24928404    -0.13200
F2540       F  0.19620907  0.48401848  0.33475753    -0.13800
F2541       F  0.16761473  0.53419440  0.32633689    -0.16000
F2542       F  0.19714138  0.48213667  0.25813252    -0.14600
F2543       F  0.18636294  0.54089525  0.20576447    -0.14600
F2544       F  0.18318422  0.46775673  0.13606630    -0.16000
C2545       C  0.13499719  0.52015619  0.52572898     0.14000
C2546       C  0.12978229  0.50769963  0.55239730     0.01000
C2547       C  0.13631469  0.49442236  0.57370127     0.16000
C2548       C  0.14792300  0.49323900  0.56784583     0.25400
C2549       C  0.15320496  0.50536096  0.54045204    -0.40900
C2550       C  0.14664761  0.51912084  0.51995183     0.32400
C2551       C  0.11745816  0.50783549  0.55719376     0.01100
F2552       F  0.13138965  0.48239103  0.59984637    -0.13300
F2553       F  0.15143473  0.53105967  0.49338900    -0.13800
C2554       C  0.11075325  0.49527017  0.53492727     0.16000
C2555       C  0.09918528  0.49390464  0.54157099     0.25400
C2556       C  0.09411315  0.50508263  0.57083452    -0.40900
C2557       C  0.10084466  0.51826727  0.59215442     0.32400
C2558       C  0.11244373  0.51952738  0.58545456     0.14100
F2559       F  0.11547479  0.48402506  0.50717101    -0.13200
F2560       F  0.09630176  0.52940634  0.62037887    -0.13800
F2561       F  0.09295069  0.48170012  0.51914995    -0.16000
F2562       F  0.11884676  0.53183132  0.60708572    -0.14600
F2563       F  0.12876088  0.53305127  0.50485674    -0.14600
F2564       F  0.15400980  0.48036819  0.58931384    -0.16000
C2565       C  0.06871527  0.48903229  0.92292881     0.14000
C2566       C  0.06162686  0.50215308  0.90339300     0.01000
C2567       C  0.05423664  0.51437169  0.92408708     0.16000
C2568       C  0.05399878  0.51356238  0.96384177     0.25400
C2569       C  0.06110507  0.50037949  0.98354822    -0.40900
C2570       C  0.06848260  0.48814554  0.96252989     0.32400
C2571       C  0.06237106  0.50381983  0.86156147     0.01100
F2572       F  0.04719685  0.52701243  0.90567677    -0.13300
F2573       F  0.07581711  0.47578087  0.98031940    -0.13800
C2574       C  0.05992521  0.48749020  0.83800690     0.16000
C2575       C  0.06037248  0.48944899  0.79840474     0.25400
C2576       C  0.06330360  0.50780498  0.78178298    -0.40900
C2577       C  0.06610377  0.52389714  0.80569024     0.32400
C2578       C  0.06563635  0.52189426  0.84507080     0.14100
F2579       F  0.05666910  0.46988101  0.85336497    -0.13200
F2580       F  0.06917016  0.54176679  0.79097797    -0.13800
F2581       F  0.05732519  0.47373532  0.77647672    -0.16000
F2582       F  0.06837159  0.53769369  0.86724082    -0.14600
F2583       F  0.07616539  0.47753979  0.90365049    -0.14600
F2584       F  0.04670961  0.52544396  0.98292573    -0.16000
C2585       C  0.06494958  0.49947756  0.34037806     0.14000
C2586       C  0.05877561  0.51346862  0.36142683     0.01000
C2587       C  0.05322545  0.52891907  0.34254054     0.16000
C2588       C  0.05376594  0.53041246  0.30308105     0.25400
C2589       C  0.05990195  0.51639888  0.28159976    -0.40900
C2590       C  0.06550817  0.50090590  0.30069541     0.32400
C2591       C  0.05797083  0.51200794  0.40314871     0.01100
F2592       F  0.04700730  0.54228573  0.36237809    -0.13300
F2593       F  0.07161642  0.48731484  0.28105527    -0.13800
C2594       C  0.06373547  0.52562428  0.42626521     0.16000
C2595       C  0.06297227  0.52432250  0.46583502     0.25400
C2596       C  0.05638011  0.50936474  0.48289307    -0.40900
C2597       C  0.05037559  0.49606677  0.45947022     0.32400
C2598       C  0.05117732  0.49739292  0.41993834     0.14100
F2599       F  0.07041724  0.53975590  0.41042041    -0.13200
F2600       F  0.04384103  0.48158997  0.47488537    -0.13800
F2601       F  0.06924601  0.53688788  0.48737594    -0.16000
F2602       F  0.04535192  0.48436731  0.39797312    -0.14600
F2603       F  0.07047333  0.48452365  0.35833002    -0.14600
F2604       F  0.04786382  0.54515844  0.28584369    -0.16000
C2605       C  0.11005074  0.52389723  0.04971778     0.14000
C2606       C  0.11793006  0.50921158  0.05937231     0.01000
C2607       C  0.11473220  0.49366512  0.08363373     0.16000
C2608       C  0.10364660  0.49212090  0.09641625     0.25400
C2609       C  0.09549663  0.50609188  0.08497064    -0.40900
C2610       C  0.09890201  0.52238878  0.06244121     0.32400
C2611       C  0.12948664  0.50958052  0.04392915     0.01100
F2612       F  0.12236089  0.47974197  0.09442719    -0.13300
F2613       F  0.09132149  0.53618399  0.05071750    -0.13800
C2614       C  0.13733434  0.52348184  0.05733213     0.16000
C2615       C  0.14870013  0.52176979  0.04749864     0.25400
C2616       C  0.15238625  0.50605282  0.02409341    -0.40900
C2617       C  0.14437577  0.49277432  0.00909640     0.32400
C2618       C  0.13300866  0.49460921  0.01880242     0.14100
F2619       F  0.13409914  0.53795157  0.08186921    -0.13200
F2620       F  0.14758178  0.47775350  0.98574180    -0.13800
F2621       F  0.15620139  0.53459518  0.06324711    -0.16000
F2622       F  0.12545228  0.48138196  0.00465015    -0.14600
F2623       F  0.11302564  0.53915233  0.02653663    -0.14600
F2624       F  0.10084108  0.47668579  0.11941223    -0.16000
C2625       C  0.24149611  0.76598132  0.71993703     0.14000
C2626       C  0.24513814  0.75073707  0.74449549     0.01000
C2627       C  0.23853723  0.73352870  0.74776361     0.16000
C2628       C  0.22845033  0.73164501  0.72759569     0.25400
C2629       C  0.22450333  0.74714738  0.70377398    -0.40900
C2630       C  0.23129165  0.76426706  0.69990138     0.32400
C2631       C  0.25579174  0.75272235  0.76672548     0.01100
F2632       F  0.24161914  0.71874411  0.77187578    -0.13300
F2633       F  0.22801871  0.77953053  0.67723369    -0.13800
C2634       C  0.25747662  0.76897246  0.79121173     0.16000
C2635       C  0.26779140  0.77160658  0.80998257     0.25400
C2636       C  0.27668559  0.75799072  0.80482912    -0.40900
C2637       C  0.27469769  0.74100416  0.78222091     0.32400
C2638       C  0.26438963  0.73845052  0.76337205     0.14100
F2639       F  0.24913460  0.78244370  0.79672260    -0.13200
F2640       F  0.28298503  0.72749769  0.77605393    -0.13800
F2641       F  0.26915516  0.78778412  0.83257119    -0.16000
F2642       F  0.26303650  0.72250114  0.74017127    -0.14600
F2643       F  0.24784580  0.78260169  0.71533853    -0.14600
F2644       F  0.22234383  0.71480135  0.73301195    -0.16000
C2645       C  0.18369063  0.65985401  0.54487000     0.14000
C2646       C  0.19120484  0.64517157  0.55754327     0.01000
C2647       C  0.19920125  0.65009877  0.58535874     0.16000
C2648       C  0.19942156  0.66913808  0.60134472     0.25400
C2649       C  0.19166200  0.68379878  0.58964036    -0.40900
C2650       C  0.18393018  0.67897890  0.56057219     0.32400
C2651       C  0.19047080  0.62454101  0.54277207     0.01100
F2652       F  0.20684642  0.63640537  0.59704881    -0.13300
F2653       F  0.17635572  0.69254988  0.54789162    -0.13800
C2654       C  0.19163050  0.62065718  0.50379670     0.16000
C2655       C  0.19094922  0.60115706  0.49008881     0.25400
C2656       C  0.18904669  0.58511470  0.51512443    -0.40900
C2657       C  0.18777888  0.58910372  0.55409936     0.32400
C2658       C  0.18852066  0.60859941  0.56776222     0.14100
F2659       F  0.19360276  0.63573799  0.47902532    -0.13200
F2660       F  0.18607291  0.57410884  0.57920641    -0.13800
F2661       F  0.19198666  0.59804572  0.45216011    -0.16000
F2662       F  0.18720403  0.61195568  0.60550193    -0.14600
F2663       F  0.17582856  0.65546945  0.51815684    -0.14600
F2664       F  0.20725650  0.67310725  0.62836871    -0.16000
C2665       C  0.25982879  0.77666233  0.25632537     0.14000
C2666       C  0.25320740  0.75986011  0.26441412     0.01000
C2667       C  0.25723220  0.74598064  0.29123184     0.16000
C2668       C  0.26781059  0.74858288  0.30855703     0.25400
C2669       C  0.27441699  0.76543247  0.30028467    -0.40900
C2670       C  0.27017172  0.77956978  0.27437421     0.32400
C2671       C  0.24221569  0.75695041  0.24446439     0.01100
F2672       F  0.25089237  0.72994911  0.30084914    -0.13300
F2673       F  0.27634489  0.79578781  0.26459361    -0.13800
C2674       C  0.23976177  0.73905933  0.22535358     0.16000
C2675       C  0.22943465  0.73648299  0.20658248     0.25400
C2676       C  0.22143367  0.75192828  0.20565144    -0.40900
C2677       C  0.22401125  0.76996758  0.22406427     0.32400
C2678       C  0.23419895  0.77235691  0.24352569     0.14100
F2679       F  0.24742471  0.72411075  0.22443098    -0.13200
F2680       F  0.21638432  0.78498172  0.22521109    -0.13800
F2681       F  0.22726766  0.71884910  0.18928416    -0.16000
F2682       F  0.23604988  0.78958160  0.26265585    -0.14600
F2683       F  0.25651572  0.78995950  0.22954966    -0.14600
F2684       F  0.27155595  0.73468992  0.33349035    -0.16000
C2685       C  0.19321369  0.74165073  0.92952751     0.14000
C2686       C  0.18870153  0.75685201  0.90675314     0.01000
C2687       C  0.18372105  0.77335372  0.92410000     0.16000
C2688       C  0.18331286  0.77484910  0.96356146     0.25400
C2689       C  0.18804822  0.75988726  0.98690912    -0.40900
C2690       C  0.19289034  0.74311098  0.96926310     0.32400
C2691       C  0.18877459  0.75538972  0.86483250     0.01100
F2692       F  0.17894735  0.78786640  0.90266172    -0.13300
F2693       F  0.19734071  0.72812851  0.99026451    -0.13800
C2694       C  0.18250585  0.74052433  0.84657708     0.16000
C2695       C  0.18222247  0.73948849  0.80694532     0.25400
C2696       C  0.18820494  0.75338291  0.78471954    -0.40900
C2697       C  0.19434490  0.76850131  0.80319396     0.32400
C2698       C  0.19463550  0.76944538  0.84288447     0.14100
F2699       F  0.17650776  0.72716189  0.86722549    -0.13200
F2700       F  0.20047074  0.78187399  0.78297515    -0.13800
F2701       F  0.17603084  0.72490384  0.79034567    -0.16000
F2702       F  0.20086160  0.78382864  0.85998386    -0.14600
F2703       F  0.19803585  0.72547803  0.91321880    -0.14600
F2704       F  0.17796763  0.79083571  0.97866610    -0.16000
C2705       C  0.19003977  0.77047891  0.34289089     0.14000
C2706       C  0.18535000  0.75533209  0.36529969     0.01000
C2707       C  0.17985536  0.73931224  0.34781806     0.16000
C2708       C  0.17934715  0.73812502  0.30826871     0.25400
C2709       C  0.18431136  0.75303715  0.28560704    -0.40900
C2710       C  0.18950524  0.76940000  0.30338604     0.32400
C2711       C  0.18603676  0.75657711  0.40697772     0.01100
F2712       F  0.17497576  0.72484590  0.36910933    -0.13300
F2713       F  0.19465963  0.78379225  0.28264568    -0.13800
C2714       C  0.18083256  0.77241475  0.42572864     0.16000
C2715       C  0.18173276  0.77430681  0.46493957     0.25400
C2716       C  0.18798907  0.76040580  0.48639795    -0.40900
C2717       C  0.19298573  0.74418189  0.46749991     0.32400
C2718       C  0.19201666  0.74232357  0.42802433     0.14100
F2719       F  0.17471331  0.78597027  0.40596308    -0.13200
F2720       F  0.19893540  0.73029601  0.48697495    -0.13800
F2721       F  0.17619321  0.78957955  0.48183745    -0.16000
F2722       F  0.19711261  0.72686268  0.41020258    -0.14600
F2723       F  0.19550615  0.78598718  0.35935171    -0.14600
F2724       F  0.17409626  0.72228179  0.29217843    -0.16000
C2725       C  0.18144104  0.60670931  0.07265790     0.14000
C2726       C  0.18823197  0.62183907  0.05734614     0.01000
C2727       C  0.19548029  0.61735995  0.02713948     0.16000
C2728       C  0.19585292  0.59824029  0.01196290     0.25400
C2729       C  0.18911688  0.58288433  0.02716617    -0.40900
C2730       C  0.18189314  0.58737613  0.05783589     0.32400
C2731       C  0.18786916  0.64239972  0.07237620     0.01100
F2732       F  0.20235338  0.63155987  0.01246853    -0.13300
F2733       F  0.17517031  0.57319784  0.07334467    -0.13800
C2734       C  0.19053682  0.64631667  0.11049258     0.16000
C2735       C  0.19122067  0.66593177  0.12357342     0.25400
C2736       C  0.18917781  0.68199420  0.09875118    -0.40900
C2737       C  0.18621199  0.67796101  0.06084079     0.32400
C2738       C  0.18557597  0.65837552  0.04783287     0.14100
F2739       F  0.19280384  0.63116621  0.13480583    -0.13200
F2740       F  0.18419942  0.69297298  0.03597494    -0.13800
F2741       F  0.19376166  0.66915799  0.16065535    -0.16000
F2742       F  0.18277711  0.65498179  0.01102210    -0.14600
F2743       F  0.17419777  0.61075133  0.10143971    -0.14600
F2744       F  0.20283319  0.59493302  0.98212819    -0.16000
C2745       C  0.05523856  0.64514315  0.00922931     0.14000
C2746       C  0.05928669  0.64131831  0.04584569     0.01000
C2747       C  0.06359263  0.65698330  0.06775202     0.16000
C2748       C  0.06390490  0.67631477  0.05308318     0.25400
C2749       C  0.05987948  0.68028752  0.01608689    -0.40900
C2750       C  0.05552110  0.66438857  0.99440778     0.32400
C2751       C  0.05894097  0.62088137  0.06096629     0.01100
F2752       F  0.06764585  0.65348100  0.10317219    -0.13300
F2753       F  0.05159575  0.66730422  0.95864177    -0.13800
C2754       C  0.06594287  0.60617510  0.04561995     0.16000
C2755       C  0.06527571  0.58655377  0.05861344     0.25400
C2756       C  0.05747148  0.58124591  0.08711625    -0.40900
C2757       C  0.05048674  0.59623023  0.10246428     0.32400
C2758       C  0.05126391  0.61583702  0.08954656     0.14100
F2759       F  0.07348411  0.61090436  0.01809546    -0.13200
F2760       F  0.04284293  0.59202265  0.12995809    -0.13800
F2761       F  0.07232294  0.57286132  0.04327926    -0.16000
F2762       F  0.04433813  0.62987350  0.10439998    -0.14600
F2763       F  0.05090515  0.63016377  0.98789272    -0.14600
F2764       F  0.06813916  0.69106033  0.07524053    -0.16000
C2765       C  0.13771471  0.74327526  0.04930026     0.14000
C2766       C  0.12986783  0.75660672  0.06478367     0.01000
C2767       C  0.13332399  0.77006092  0.09295617     0.16000
C2768       C  0.14459014  0.77100358  0.10395876     0.25400
C2769       C  0.15258423  0.75837499  0.08717766    -0.40900
C2770       C  0.14900666  0.74407200  0.06058299     0.32400
C2771       C  0.11813713  0.75715877  0.05096492     0.01100
F2772       F  0.12578040  0.78255980  0.10931631    -0.13300
F2773       F  0.15655841  0.73182589  0.04358332    -0.13800
C2774       C  0.11097877  0.74079771  0.05611899     0.16000
C2775       C  0.09955809  0.74222562  0.04690503     0.25400
C2776       C  0.09511619  0.76009249  0.03207995    -0.40900
C2777       C  0.10250198  0.77613354  0.02525194     0.32400
C2778       C  0.11388066  0.77464817  0.03465401     0.14100
F2779       F  0.11494054  0.72374878  0.07183427    -0.13200
F2780       F  0.09872634  0.79344012  0.01001282    -0.13800
F2781       F  0.09279862  0.72639876  0.05428511    -0.16000
F2782       F  0.12075373  0.79046040  0.02837161    -0.14600
F2783       F  0.13456084  0.73024411  0.02183897    -0.14600
F2784       F  0.14773667  0.78451760  0.13057313    -0.16000
C2785       C  0.07496033  0.75167025  0.77004189     0.14000
C2786       C  0.06549263  0.76020054  0.75236626     0.01000
C2787       C  0.05663597  0.76731931  0.77495063     0.16000
C2788       C  0.05716724  0.76587296  0.81444520     0.25400
C2789       C  0.06648771  0.75698738  0.83218248    -0.40900
C2790       C  0.07539636  0.74987024  0.80972499     0.32400
C2791       C  0.06465392  0.76158037  0.71044142     0.01100
F2792       F  0.04722522  0.77491279  0.75858675    -0.13300
F2793       F  0.08446577  0.74115506  0.82621416    -0.13800
C2794       C  0.06466461  0.74436608  0.68789064     0.16000
C2795       C  0.06343080  0.74571807  0.64842718     0.25400
C2796       C  0.06215315  0.76441243  0.63059068    -0.40900
C2797       C  0.06201557  0.78162558  0.65363533     0.32400
C2798       C  0.06327756  0.78017111  0.69298161     0.14100
F2799       F  0.06571671  0.72616046  0.70416677    -0.13200
F2800       F  0.06080151  0.80002652  0.63829769    -0.13800
F2801       F  0.06372004  0.72866930  0.62780325    -0.16000
F2802       F  0.06333291  0.79705271  0.71413292    -0.14600
F2803       F  0.08374719  0.74508976  0.74887245    -0.14600
F2804       F  0.04820671  0.77197524  0.83532348    -0.16000
C2805       C  0.06120895  0.76497215  0.27134509     0.14000
C2806       C  0.06009001  0.74709404  0.25099872     0.01000
C2807       C  0.05950067  0.72911978  0.27096111     0.16000
C2808       C  0.05996808  0.72895757  0.31067012     0.25400
C2809       C  0.06095973  0.74691010  0.33152342    -0.40900
C2810       C  0.06164454  0.76492672  0.31112298     0.32400
C2811       C  0.06009914  0.74725705  0.20888937     0.01100
F2812       F  0.05868966  0.71162300  0.25190367    -0.13300
F2813       F  0.06249772  0.78260282  0.32949909    -0.13800
C2814       C  0.06967074  0.75402769  0.18951728     0.16000
C2815       C  0.06956122  0.75586697  0.15008357     0.25400
C2816       C  0.05989514  0.75085459  0.12909254    -0.40900
C2817       C  0.05048497  0.74302634  0.14811843     0.32400
C2818       C  0.05058035  0.74126762  0.18789533     0.14100
F2819       F  0.07913660  0.75898399  0.20894893    -0.13200
F2820       F  0.04104732  0.73811117  0.12850093    -0.13800
F2821       F  0.07893747  0.76267333  0.13223288    -0.16000
F2822       F  0.04125376  0.73448860  0.20601729    -0.14600
F2823       F  0.06169919  0.78258288  0.25255258    -0.14600
F2824       F  0.05951152  0.71107134  0.32850089    -0.16000
C2825       C  0.04942531  0.65330610  0.54849199     0.14000
C2826       C  0.05924065  0.64566525  0.56522757     0.01000
C2827       C  0.06878024  0.65794967  0.56817033     0.16000
C2828       C  0.06864286  0.67731202  0.55329760     0.25400
C2829       C  0.05895343  0.68470385  0.53497036    -0.40900
C2830       C  0.04926765  0.67257796  0.53354327     0.32400
C2831       C  0.05951281  0.62471539  0.57862348     0.01100
F2832       F  0.07825159  0.65113858  0.58535215    -0.13300
F2833       F  0.03959751  0.67931626  0.51754071    -0.13800
C2834       C  0.06681885  0.61083867  0.56184606     0.16000
C2835       C  0.06653358  0.59076169  0.57270971     0.25400
C2836       C  0.05890236  0.58412408  0.60070592    -0.40900
C2837       C  0.05173997  0.59829710  0.61790951     0.32400
C2838       C  0.05205622  0.61828217  0.60693271     0.14100
F2839       F  0.07404587  0.61665829  0.53413575    -0.13200
F2840       F  0.04432388  0.59293580  0.64539055    -0.13800
F2841       F  0.07373270  0.57789412  0.55567662    -0.16000
F2842       F  0.04506666  0.63144963  0.62415932    -0.14600
F2843       F  0.04005395  0.64183221  0.54554336    -0.14600
F2844       F  0.07813412  0.68850421  0.55560203    -0.16000
C2845       C  0.13924521  0.74546110  0.55646127     0.14000
C2846       C  0.13171120  0.76009031  0.56906684     0.01000
C2847       C  0.13562447  0.77525837  0.59314348     0.16000
C2848       C  0.14700430  0.77626619  0.60316413     0.25400
C2849       C  0.15468342  0.76203931  0.58941846    -0.40900
C2850       C  0.15062354  0.74635790  0.56662335     0.32400
C2851       C  0.11992650  0.76020623  0.55540080     0.01100
F2852       F  0.12842848  0.78928838  0.60649297    -0.13300
F2853       F  0.15777403  0.73259329  0.55208313    -0.13800
C2854       C  0.11261408  0.74431257  0.56349377     0.16000
C2855       C  0.10136547  0.74492662  0.55155488     0.25400
C2856       C  0.09726912  0.76155357  0.53160129    -0.40900
C2857       C  0.10474166  0.77708040  0.52236293     0.32400
C2858       C  0.11594955  0.77639570  0.53412362     0.14100
F2859       F  0.11624600  0.72863455  0.58444292    -0.13200
F2860       F  0.10113801  0.79311974  0.50232441    -0.13800
F2861       F  0.09434218  0.72987006  0.56154757    -0.16000
F2862       F  0.12292961  0.79165628  0.52493159    -0.14600
F2863       F  0.13568898  0.73090554  0.53258114    -0.14600
F2864       F  0.15053614  0.79132517  0.62593240    -0.16000
C2865       C  0.26192828  0.24791041  0.02770043     0.14000
C2866       C  0.25844970  0.26092894  0.99868223     0.01000
C2867       C  0.26548286  0.27678992  0.98843804     0.16000
C2868       C  0.27580680  0.27964064  0.00658852     0.25400
C2869       C  0.27945218  0.26655387  0.03550059    -0.40900
C2870       C  0.27235745  0.25062574  0.04584343     0.32400
C2871       C  0.24742449  0.25838072  0.97932870     0.01100
F2872       F  0.26247572  0.28928714  0.95989622    -0.13300
F2873       F  0.27546055  0.23775024  0.07361451    -0.13800
C2874       C  0.23942632  0.27372318  0.98044200     0.16000
C2875       C  0.22896840  0.27148139  0.96274498     0.25400
C2876       C  0.22619547  0.25369109  0.94355015    -0.40900
C2877       C  0.23442460  0.23859279  0.94131782     0.32400
C2878       C  0.24491646  0.24093989  0.95904788     0.14100
F2879       F  0.24158358  0.29068599  0.00006319    -0.13200
F2880       F  0.23227531  0.22136046  0.92257718    -0.13800
F2881       F  0.22135575  0.28640308  0.96642714    -0.16000
F2882       F  0.25264748  0.22615578  0.95638584    -0.14600
F2883       F  0.25515278  0.23271699  0.03879859    -0.14600
F2884       F  0.28243899  0.29481935  0.99444570    -0.16000
C2885       C  0.18132291  0.36403769  0.91481815     0.14000
C2886       C  0.19126718  0.37242680  0.92904271     0.01000
C2887       C  0.20009317  0.35983464  0.94040045     0.16000
C2888       C  0.19905122  0.33911975  0.93692071     0.25400
C2889       C  0.18913585  0.33066904  0.92197892    -0.40900
C2890       C  0.18025029  0.34344278  0.91129913     0.32400
C2891       C  0.19204293  0.39425025  0.93424458     0.01100
F2892       F  0.20980290  0.36766343  0.95420977    -0.13300
F2893       F  0.17042507  0.33604133  0.89753022    -0.13800
C2894       C  0.19268108  0.40211098  0.97104909     0.16000
C2895       C  0.19217627  0.42262465  0.97678162     0.25400
C2896       C  0.19122976  0.43570844  0.94578446    -0.40900
C2897       C  0.19088063  0.42797181  0.90881877     0.32400
C2898       C  0.19119232  0.40731907  0.90307823     0.14100
F2899       F  0.19314200  0.38983253  0.00162041    -0.13200
F2900       F  0.18947843  0.44028931  0.87865167    -0.13800
F2901       F  0.19225894  0.42975130  0.01286053    -0.16000
F2902       F  0.19032921  0.40003213  0.86726083    -0.14600
F2903       F  0.17251912  0.37583260  0.90499077    -0.14600
F2904       F  0.20787766  0.32744739  0.94696339    -0.16000
C2905       C  0.25972019  0.27423450  0.53822610     0.14000
C2906       C  0.25699369  0.25677393  0.51812307     0.01000
C2907       C  0.26503978  0.24140208  0.51682769     0.16000
C2908       C  0.27569711  0.24378158  0.53351347     0.25400
C2909       C  0.27871196  0.26176049  0.55154848    -0.40900
C2910       C  0.27044663  0.27675791  0.55449505     0.32400
C2911       C  0.24587186  0.25455254  0.49825109     0.01100
F2912       F  0.26279686  0.22432166  0.49770822    -0.13300
F2913       F  0.27277589  0.29403653  0.57281990    -0.13800
C2914       C  0.24204094  0.26888918  0.47194341     0.16000
C2915       C  0.23168201  0.26647391  0.45296334     0.25400
C2916       C  0.22497007  0.24951676  0.45940880    -0.40900
C2917       C  0.22886137  0.23521631  0.48571482     0.32400
C2918       C  0.23908250  0.23778058  0.50496098     0.14100
F2919       F  0.24840722  0.28515622  0.46416271    -0.13200
F2920       F  0.22250448  0.21905161  0.49440679    -0.13800
F2921       F  0.22828160  0.28064974  0.42804024    -0.16000
F2922       F  0.24215830  0.22407707  0.53129547    -0.14600
F2923       F  0.25197628  0.28891888  0.54215824    -0.14600
F2924       F  0.28329694  0.22884716  0.52979680    -0.16000
C2925       C  0.19835643  0.35873681  0.45364865     0.14000
C2926       C  0.19101093  0.37178173  0.43481400     0.01000
C2927       C  0.18333550  0.36416139  0.40840011     0.16000
C2928       C  0.18290582  0.34381791  0.40086206     0.25400
C2929       C  0.19014571  0.33042663  0.41991380    -0.40900
C2930       C  0.19791624  0.33819525  0.44638859     0.32400
C2931       C  0.19061045  0.39321870  0.44409956     0.01100
F2932       F  0.17615882  0.37654904  0.38992048    -0.13300
F2933       F  0.20511931  0.32600340  0.46514316    -0.13800
C2934       C  0.19880589  0.40649094  0.43047831     0.16000
C2935       C  0.19754429  0.42707024  0.43583794     0.25400
C2936       C  0.18805729  0.43464226  0.45503149    -0.40900
C2937       C  0.18003669  0.42107120  0.46946635     0.32400
C2938       C  0.18130475  0.40066171  0.46388540     0.14100
F2939       F  0.20788384  0.39953981  0.41126491    -0.13200
F2940       F  0.17080522  0.42746410  0.48861182    -0.13800
F2941       F  0.20566563  0.43950354  0.42271127    -0.16000
F2942       F  0.17332020  0.38805599  0.47744042    -0.14600
F2943       F  0.20578718  0.36585696  0.47958427    -0.14600
F2944       F  0.17527900  0.33735627  0.37491477    -0.16000
C2945       C  0.19509456  0.27446784  0.67780267     0.14000
C2946       C  0.18999334  0.25798379  0.66056096     0.01000
C2947       C  0.18579323  0.24249925  0.68324229     0.16000
C2948       C  0.18644805  0.24367725  0.72277124     0.25400
C2949       C  0.19133329  0.26041407  0.74033660    -0.40900
C2950       C  0.19575351  0.27572248  0.71732712     0.32400
C2951       C  0.18962626  0.25637312  0.61883343     0.01100
F2952       F  0.18082664  0.22640655  0.66702467    -0.13300
F2953       F  0.20074585  0.29192784  0.73302068    -0.13800
C2954       C  0.19569745  0.24122694  0.60100657     0.16000
C2955       C  0.19564939  0.23956338  0.56167682     0.25400
C2956       C  0.18937731  0.25293011  0.53908227    -0.40900
C2957       C  0.18333465  0.26827548  0.55700580     0.32400
C2958       C  0.18346228  0.26996208  0.59671180     0.14100
F2959       F  0.20193050  0.22825667  0.62177707    -0.13200
F2960       F  0.17718263  0.28137143  0.53630205    -0.13800
F2961       F  0.20209501  0.22513697  0.54573766    -0.16000
F2962       F  0.17745054  0.28463858  0.61365980    -0.14600
F2963       F  0.19959565  0.28921359  0.65626466    -0.14600
F2964       F  0.18183010  0.22884160  0.74375295    -0.16000
C2965       C  0.18914853  0.26908497  0.09838645     0.14000
C2966       C  0.19503399  0.25450329  0.11895490     0.01000
C2967       C  0.20033057  0.23900815  0.09949397     0.16000
C2968       C  0.19966878  0.23783395  0.06006959     0.25400
C2969       C  0.19346818  0.25202683  0.03901660    -0.40900
C2970       C  0.18833564  0.26786263  0.05870768     0.32400
C2971       C  0.19563814  0.25521849  0.16081090     0.01100
F2972       F  0.20631623  0.22508415  0.11877543    -0.13300
F2973       F  0.18240101  0.28198215  0.03981062    -0.13800
C2974       C  0.19034436  0.24046712  0.18266587     0.16000
C2975       C  0.19064495  0.24137023  0.22233163     0.25400
C2976       C  0.19634131  0.25701686  0.24083472    -0.40900
C2977       C  0.20206382  0.27125659  0.21864000     0.32400
C2978       C  0.20165137  0.27040740  0.17901974     0.14100
F2979       F  0.18449378  0.22561701  0.16549569    -0.13200
F2980       F  0.20793963  0.28622502  0.23529154    -0.13800
F2981       F  0.18477240  0.22762683  0.24241432    -0.16000
F2982       F  0.20710298  0.28446954  0.15835170    -0.14600
F2983       F  0.18400175  0.28427467  0.11686804    -0.14600
F2984       F  0.20534821  0.22289248  0.04262764    -0.16000
C2985       C  0.06589886  0.39888238  0.63404634     0.14000
C2986       C  0.06309941  0.39122774  0.66981003     0.01000
C2987       C  0.05997368  0.40442344  0.69896189     0.16000
C2988       C  0.05969010  0.42500789  0.69243179     0.25400
C2989       C  0.06265333  0.43276068  0.65668058    -0.40900
C2990       C  0.06568678  0.41937075  0.62748724     0.32400
C2991       C  0.06390556  0.36954566  0.67701529     0.01100
F2992       F  0.05719956  0.39732901  0.73380945    -0.13300
F2993       F  0.06839466  0.42603821  0.59225608    -0.13800
C2994       C  0.07166105  0.36235234  0.70364120     0.16000
C2995       C  0.07252246  0.34198704  0.71079559     0.25400
C2996       C  0.06552373  0.32823013  0.69167344    -0.40900
C2997       C  0.05794332  0.33548251  0.66412720     0.32400
C2998       C  0.05718352  0.35595029  0.65682379     0.14100
F2999       F  0.07853691  0.37510946  0.72252107    -0.13200
F3000       F  0.05110288  0.32289187  0.64471595    -0.13800
F3001       F  0.08023350  0.33585852  0.73673082    -0.16000
F3002       F  0.04969001  0.36256097  0.63060981    -0.14600
F3003       F  0.06914361  0.38649966  0.60563846    -0.14600
F3004       F  0.05680682  0.43732172  0.72134480    -0.16000
C3005       C  0.13736314  0.24183781  0.84344904     0.14000
C3006       C  0.13166086  0.25612440  0.82169054     0.01000
C3007       C  0.13761515  0.27237680  0.80704518     0.16000
C3008       C  0.14907285  0.27461477  0.81434857     0.25400
C3009       C  0.15492179  0.26054311  0.83665950    -0.40900
C3010       C  0.14891813  0.24399398  0.85090947     0.32400
C3011       C  0.11939639  0.25502102  0.81508652     0.01100
F3012       F  0.13227086  0.28615715  0.78537402    -0.13300
F3013       F  0.15413863  0.23009632  0.87260506    -0.13800
C3014       C  0.11237212  0.26908786  0.83234811     0.16000
C3015       C  0.10111523  0.27074396  0.82153365     0.25400
C3016       C  0.09662925  0.25835556  0.79295870    -0.40900
C3017       C  0.10355224  0.24344806  0.77721259     0.32400
C3018       C  0.11487332  0.24186297  0.78815356     0.14100
F3019       F  0.11654090  0.28161853  0.85912659    -0.13200
F3020       F  0.09952380  0.23094076  0.75017039    -0.13800
F3021       F  0.09461400  0.28451622  0.83920913    -0.16000
F3022       F  0.12155028  0.22810998  0.77122262    -0.14600
F3023       F  0.13169351  0.22607231  0.85809946    -0.14600
F3024       F  0.15442589  0.29052218  0.79889201    -0.16000
C3025       C  0.05231432  0.36235587  0.21744608     0.14000
C3026       C  0.05466939  0.37105551  0.18217800     0.01000
C3027       C  0.05777254  0.35884922  0.15146598     0.16000
C3028       C  0.05921180  0.33830868  0.15667584     0.25400
C3029       C  0.05765040  0.32988314  0.19275098    -0.40900
C3030       C  0.05386021  0.34194074  0.22274993     0.32400
C3031       C  0.05587311  0.39289273  0.17940652     0.01100
F3032       F  0.06004970  0.36704530  0.11709500    -0.13300
F3033       F  0.05217457  0.33402368  0.25776404    -0.13800
C3034       C  0.06664119  0.40128674  0.18278215     0.16000
C3035       C  0.06817317  0.42178494  0.17912103     0.25400
C3036       C  0.05892063  0.43434174  0.17275419    -0.40900
C3037       C  0.04804707  0.42603997  0.17081640     0.32400
C3038       C  0.04653857  0.40537926  0.17395453     0.14100
F3039       F  0.07571614  0.38949367  0.18916082    -0.13200
F3040       F  0.03900842  0.43777133  0.16348800    -0.13800
F3041       F  0.07874540  0.42938440  0.18127529    -0.16000
F3042       F  0.03606315  0.39751534  0.17045260    -0.14600
F3043       F  0.04928500  0.37386100  0.24740919    -0.14600
F3044       F  0.06298108  0.32699237  0.12743380    -0.16000
C3045       C  0.05950801  0.23739450  0.01486070     0.14000
C3046       C  0.06185132  0.25559263  0.99712761     0.01000
C3047       C  0.06505753  0.27195761  0.01957245     0.16000
C3048       C  0.06615001  0.26993715  0.05912509     0.25400
C3049       C  0.06400699  0.25149398  0.07689708    -0.40900
C3050       C  0.06055660  0.23532717  0.05410440     0.32400
C3051       C  0.06124808  0.25692377  0.95509274     0.01100
F3052       F  0.06731707  0.28978579  0.00314675    -0.13300
F3053       F  0.05777104  0.21754726  0.06979443    -0.13800
C3054       C  0.05363365  0.26982238  0.93704852     0.16000
C3055       C  0.05285401  0.27021219  0.89731471     0.25400
C3056       C  0.05955097  0.25749048  0.87499050    -0.40900
C3057       C  0.06714541  0.24458696  0.89318861     0.32400
C3058       C  0.06802384  0.24440720  0.93277852     0.14100
F3059       F  0.04687559  0.28187605  0.95788864    -0.13200
F3060       F  0.07422876  0.23300208  0.87258192    -0.13800
F3061       F  0.04557271  0.28306313  0.88058989    -0.16000
F3062       F  0.07574929  0.23236226  0.94944455    -0.14600
F3063       F  0.05595473  0.22159417  0.99404083    -0.14600
F3064       F  0.06941184  0.28595865  0.07985995    -0.16000
C3065       C  0.06425033  0.27132002  0.51999489     0.14000
C3066       C  0.06797700  0.25550879  0.49718847     0.01000
C3067       C  0.07192935  0.23805665  0.51445203     0.16000
C3068       C  0.07179586  0.23613129  0.55393107     0.25400
C3069       C  0.06771115  0.25167443  0.57689935    -0.40900
C3070       C  0.06411127  0.26944209  0.55952767     0.32400
C3071       C  0.06759474  0.25710026  0.45536981     0.01100
F3072       F  0.07591122  0.22284664  0.49297911    -0.13300
F3073       F  0.05987023  0.28459450  0.58058205    -0.13800
C3074       C  0.07367433  0.27207998  0.43681697     0.16000
C3075       C  0.07328359  0.27374184  0.39736984     0.25400
C3076       C  0.06681222  0.26031268  0.37549829    -0.40900
C3077       C  0.06074658  0.24523193  0.39428766     0.32400
C3078       C  0.06111902  0.24370151  0.43387895     0.14100
F3079       F  0.08018158  0.28492478  0.45693418    -0.13200
F3080       F  0.05425716  0.23221131  0.37454535    -0.13800
F3081       F  0.07944992  0.28834795  0.38070247    -0.16000
F3082       F  0.05496371  0.22935871  0.45136761    -0.14600
F3083       F  0.06031021  0.28828778  0.50386833    -0.14600
F3084       F  0.07562614  0.21899715  0.56968543    -0.16000
C3085       C  0.14354074  0.27090190  0.27500243     0.14000
C3086       C  0.13567504  0.25896309  0.29416985     0.01000
C3087       C  0.13928696  0.24753889  0.32535044     0.16000
C3088       C  0.15047103  0.24870972  0.33806985     0.25400
C3089       C  0.15818576  0.26159499  0.32016561    -0.40900
C3090       C  0.15462694  0.27230012  0.28790844     0.32400
C3091       C  0.12356409  0.26007718  0.28378093     0.01100
F3092       F  0.13186567  0.23593460  0.34455744    -0.13300
F3093       F  0.16193214  0.28398246  0.26834413    -0.13800
C3094       C  0.11729599  0.24299120  0.27453249     0.16000
C3095       C  0.10572947  0.24441663  0.26664162     0.25400
C3096       C  0.10024383  0.26303657  0.26756627    -0.40900
C3097       C  0.10671378  0.28013990  0.27572540     0.32400
C3098       C  0.11815308  0.27861682  0.28399873     0.14100
F3099       F  0.12238186  0.22494051  0.27302871    -0.13200
F3100       F  0.10193070  0.29844781  0.27743595    -0.13800
F3101       F  0.09993328  0.22756534  0.25828079    -0.16000
F3102       F  0.12388302  0.29533613  0.29378425    -0.14600
F3103       F  0.14042956  0.28143940  0.24382577    -0.14600
F3104       F  0.15361563  0.23779975  0.36870840    -0.16000
C3105       C  0.06098903  0.90055601  0.88903133     0.14000
C3106       C  0.05800875  0.89280069  0.92443546     0.01000
C3107       C  0.05573395  0.90575968  0.95476225     0.16000
C3108       C  0.05656400  0.92637693  0.94975936     0.25400
C3109       C  0.05987635  0.93421001  0.91443803    -0.40900
C3110       C  0.06191721  0.92103917  0.88397877     0.32400
C3111       C  0.05863332  0.87121030  0.93076714     0.01100
F3112       F  0.05302877  0.89837204  0.98944972    -0.13300
F3113       F  0.06487814  0.92792636  0.84913111    -0.13800
C3114       C  0.06832435  0.86330566  0.94744597     0.16000
C3115       C  0.06903736  0.84302390  0.95492794     0.25400
C3116       C  0.06002386  0.83019021  0.94583074    -0.40900
C3117       C  0.05053729  0.83799738  0.92713926     0.32400
C3118       C  0.04984644  0.85847003  0.91971104     0.14100
F3119       F  0.07707470  0.87535568  0.95686135    -0.13200
F3120       F  0.04172396  0.82606882  0.91799517    -0.13800
F3121       F  0.07852446  0.83597456  0.97171823    -0.16000
F3122       F  0.04049916  0.86596657  0.90282091    -0.14600
F3123       F  0.06343048  0.88820527  0.85968540    -0.14600
F3124       F  0.05457256  0.93854963  0.97975182    -0.16000
C3125       C  0.05180557  0.11548103  0.83830037     0.14000
C3126       C  0.06051784  0.12075013  0.81343515     0.01000
C3127       C  0.06882278  0.10672507  0.80435290     0.16000
C3128       C  0.06856445  0.08774943  0.82057136     0.25400
C3129       C  0.05994928  0.08246644  0.84624387    -0.40900
C3130       C  0.05150012  0.09655318  0.85457830     0.32400
C3131       C  0.06101382  0.14100643  0.79740228     0.01100
F3132       F  0.07736250  0.11161555  0.78049691    -0.13300
F3133       F  0.04284690  0.09205322  0.87824247    -0.13800
C3134       C  0.06250353  0.15748832  0.82138042     0.16000
C3135       C  0.06293878  0.17671208  0.80630913     0.25400
C3136       C  0.06178371  0.17973281  0.76697792    -0.40900
C3137       C  0.06033859  0.16312559  0.74302921     0.32400
C3138       C  0.05996695  0.14394028  0.75815273     0.14100
F3139       F  0.06358982  0.15491047  0.85943159    -0.13200
F3140       F  0.05943757  0.16541342  0.70483993    -0.13800
F3141       F  0.06416946  0.19236499  0.83029604    -0.16000
F3142       F  0.05838482  0.12821849  0.73454637    -0.14600
F3143       F  0.04351277  0.12867160  0.84654534    -0.14600
F3144       F  0.07692120  0.07478792  0.81179021    -0.16000
C3145       C  0.06295435  0.86450078  0.47422795     0.14000
C3146       C  0.05654121  0.87193758  0.44402858     0.01000
C3147       C  0.05204917  0.85851667  0.41731676     0.16000
C3148       C  0.05422274  0.83803992  0.42015991     0.25400
C3149       C  0.06105884  0.83062156  0.44960321    -0.40900
C3150       C  0.06521008  0.84415413  0.47702709     0.32400
C3151       C  0.05610466  0.89373484  0.43727126     0.01100
F3152       F  0.04577227  0.86536234  0.38788986    -0.13300
F3153       F  0.07156280  0.83781502  0.50670848    -0.13800
C3154       C  0.06169448  0.90145626  0.40556212     0.16000
C3155       C  0.06247550  0.92191411  0.39997451     0.25400
C3156       C  0.05771335  0.93541544  0.42615636    -0.40900
C3157       C  0.05179235  0.92770066  0.45757414     0.32400
C3158       C  0.05108664  0.90697786  0.46325685     0.14100
F3159       F  0.06685342  0.88909267  0.38055678    -0.13200
F3160       F  0.04701719  0.94011657  0.48330838    -0.13800
F3161       F  0.06799651  0.92844415  0.36860336    -0.16000
F3162       F  0.04561991  0.89983624  0.49423301    -0.14600
F3163       F  0.06754095  0.87710286  0.50009311    -0.14600
F3164       F  0.04988802  0.82561853  0.39352384    -0.16000
C3165       C  0.06096703  0.02580609  0.68372041     0.14000
C3166       C  0.05400632  0.01352479  0.66154153     0.01000
C3167       C  0.04701378  0.99957953  0.67970541     0.16000
C3168       C  0.04735955  0.99735527  0.71925199     0.25400
C3169       C  0.05460852  0.00923559  0.74139605    -0.40900
C3170       C  0.06122318  0.02378092  0.72320683     0.32400
C3171       C  0.05454179  0.01470228  0.61948547     0.01100
F3172       F  0.03992823  0.98797718  0.65907467    -0.13300
F3173       F  0.06852786  0.03519361  0.74334451    -0.13800
C3174       C  0.05755785  0.99794023  0.59794001     0.16000
C3175       C  0.05880044  0.99932317  0.55849685     0.25400
C3176       C  0.05714497  0.01759716  0.53969276    -0.40900
C3177       C  0.05393394  0.03432343  0.56149493     0.32400
C3178       C  0.05263599  0.03283369  0.60084147     0.14100
F3179       F  0.05959008  0.98026781  0.61524626    -0.13200
F3180       F  0.05171195  0.05210478  0.54481631    -0.13800
F3181       F  0.06173165  0.98274965  0.53887502    -0.16000
F3182       F  0.04934697  0.04911102  0.62076845    -0.14600
F3183       F  0.06800262  0.03907953  0.66693514    -0.14600
F3184       F  0.04067764  0.98345745  0.73583660    -0.16000
C3185       C  0.06984498  0.99249988  0.18162680     0.14000
C3186       C  0.06213891  0.00430457  0.16154105     0.01000
C3187       C  0.05365678  0.01439297  0.18166428     0.16000
C3188       C  0.05296552  0.01288511  0.22128058     0.25400
C3189       C  0.06076106  0.00127092  0.24148884    -0.40900
C3190       C  0.06917246  0.99097900  0.22118258     0.32400
C3191       C  0.06294999  0.00623516  0.11964372     0.01100
F3192       F  0.04593670  0.02550794  0.16279956    -0.13300
F3193       F  0.07702185  0.97997569  0.23973738    -0.13800
C3194       C  0.06153971  0.98957025  0.09603859     0.16000
C3195       C  0.06157765  0.99166853  0.05642255     0.25400
C3196       C  0.06299847  0.01054305  0.03962236    -0.40900
C3197       C  0.06485989  0.02708390  0.06353678     0.32400
C3198       C  0.06485743  0.02490902  0.10305020     0.14100
F3199       F  0.05966535  0.97135265  0.11141355    -0.13200
F3200       F  0.06666025  0.04546587  0.04875726    -0.13800
F3201       F  0.05967696  0.97535056  0.03466461    -0.16000
F3202       F  0.06671087  0.04109964  0.12524028    -0.14600
F3203       F  0.07822879  0.98287694  0.16299717    -0.14600
F3204       F  0.04452770  0.02241095  0.23978721    -0.16000
C3205       C  0.06975779  0.15696769  0.31694712     0.14000
C3206       C  0.06037430  0.14473431  0.30946796     0.01000
C3207       C  0.05168101  0.15226971  0.28655531     0.16000
C3208       C  0.05247339  0.17124611  0.27046616     0.25400
C3209       C  0.06204661  0.18327914  0.27655996    -0.40900
C3210       C  0.07058310  0.17605293  0.30073556     0.32400
C3211       C  0.05968355  0.12390892  0.32418628     0.01100
F3212       F  0.04251355  0.14094029  0.27858243    -0.13300
F3213       F  0.07990591  0.18714802  0.30774046    -0.13800
C3214       C  0.05021407  0.11752690  0.34485254     0.16000
C3215       C  0.04905728  0.09759632  0.35585889     0.25400
C3216       C  0.05739675  0.08344753  0.34672302    -0.40900
C3217       C  0.06699135  0.08995209  0.32661976     0.32400
C3218       C  0.06810864  0.10992616  0.31551536     0.14100
F3219       F  0.04205079  0.13067917  0.35462165    -0.13200
F3220       F  0.07541421  0.07707660  0.31811497    -0.13800
F3221       F  0.03965125  0.09216924  0.37514636    -0.16000
F3222       F  0.07733063  0.11549756  0.29540093    -0.14600
F3223       F  0.07814130  0.15042720  0.33996064    -0.14600
F3224       F  0.04379078  0.17779535  0.24875017    -0.16000
C3225       C  0.25555459  0.99693748  0.58098494     0.14000
C3226       C  0.25345604  0.01333470  0.60474427     0.01000
C3227       C  0.26210856  0.02726058  0.61074419     0.16000
C3228       C  0.27276290  0.02443585  0.59469012     0.25400
C3229       C  0.27510448  0.00735852  0.57274836    -0.40900
C3230       C  0.26625697  0.99390394  0.56533844     0.32400
C3231       C  0.24234405  0.01567065  0.62383275     0.01100
F3232       F  0.26043561  0.04314750  0.63383569    -0.13300
F3233       F  0.26798200  0.97755987  0.54348592    -0.13800
C3234       C  0.23784475  0.00019298  0.64603055     0.16000
C3235       C  0.22720345  0.00203319  0.66282430     0.25400
C3236       C  0.22082878  0.01959062  0.65831982    -0.40900
C3237       C  0.22560369  0.03537584  0.63715485     0.32400
C3238       C  0.23616077  0.03334123  0.61995315     0.14100
F3239       F  0.24379147  0.98320746  0.65158594    -0.13200
F3240       F  0.21993477  0.05266581  0.63174165    -0.13800
F3241       F  0.22312239  0.98641467  0.68301702    -0.16000
F3242       F  0.24015876  0.04846323  0.59823218    -0.14600
F3243       F  0.24723410  0.98370329  0.57315134    -0.14600
F3244       F  0.28094690  0.03791323  0.60267169    -0.16000
C3245       C  0.18903639  0.90048853  0.71304954     0.14000
C3246       C  0.19605939  0.89461479  0.68314230     0.01000
C3247       C  0.20087807  0.90927585  0.65968069     0.16000
C3248       C  0.19860511  0.92950333  0.66593402     0.25400
C3249       C  0.19136518  0.93538583  0.69558922    -0.40900
C3250       C  0.18672940  0.92053970  0.71930928     0.32400
C3251       C  0.19722848  0.87311540  0.67456330     0.01100
F3252       F  0.20771569  0.90397636  0.63053285    -0.13300
F3253       F  0.17985954  0.92527305  0.74874482    -0.13800
C3254       C  0.19293793  0.86567798  0.64033826     0.16000
C3255       C  0.19188575  0.84522134  0.63478417     0.25400
C3256       C  0.19502500  0.83164717  0.66353108    -0.40900
C3257       C  0.20008841  0.83904435  0.69673079     0.32400
C3258       C  0.20113999  0.85965337  0.70225056     0.14100
F3259       F  0.18904334  0.87825898  0.61317760    -0.13200
F3260       F  0.20342518  0.82646154  0.72466403    -0.13800
F3261       F  0.18748151  0.83873705  0.60140611    -0.16000
F3262       F  0.20558248  0.86652905  0.73524362    -0.14600
F3263       F  0.18398723  0.88666819  0.73544012    -0.14600
F3264       F  0.20337243  0.94322346  0.64265902    -0.16000
C3265       C  0.18169000  0.10799850  0.81514584     0.14000
C3266       C  0.18821747  0.12283964  0.79774184     0.01000
C3267       C  0.19446325  0.11813505  0.76524775     0.16000
C3268       C  0.19429489  0.09884208  0.75045913     0.25400
C3269       C  0.18779538  0.08372406  0.76787254    -0.40900
C3270       C  0.18142040  0.08865680  0.80031897     0.32400
C3271       C  0.18880580  0.14311211  0.81407531     0.01100
F3272       F  0.20095131  0.13218937  0.74825016    -0.13300
F3273       F  0.17489836  0.07484004  0.81781543    -0.13800
C3274       C  0.19407887  0.14620324  0.84918093     0.16000
C3275       C  0.19490871  0.16534303  0.86448188     0.25400
C3276       C  0.19043574  0.18190952  0.84493815    -0.40900
C3277       C  0.18507260  0.17865630  0.80971433     0.32400
C3278       C  0.18433388  0.15945588  0.79439552     0.14100
F3279       F  0.19860035  0.13064051  0.86842793    -0.13200
F3280       F  0.18063216  0.19402588  0.78977519    -0.13800
F3281       F  0.19998471  0.16751698  0.89877052    -0.16000
F3282       F  0.17915474  0.15676380  0.76041756    -0.14600
F3283       F  0.17549144  0.11232206  0.84642729    -0.14600
F3284       F  0.20059182  0.09507953  0.71911460    -0.16000
C3285       C  0.11218992  0.01708322  0.82529599     0.14000
C3286       C  0.11748240  0.99995175  0.81109355     0.01000
C3287       C  0.11104289  0.98266256  0.80581230     0.16000
C3288       C  0.09951643  0.98251397  0.81417924     0.25400
C3289       C  0.09407870  0.99974550  0.82827200    -0.40900
C3290       C  0.10064925  0.01700399  0.83393377     0.32400
C3291       C  0.12974657  0.99999833  0.80229774     0.01100
F3292       F  0.11590005  0.96590073  0.79191787    -0.13300
F3293       F  0.09595091  0.03391299  0.84769885    -0.13800
C3294       C  0.13709777  0.98734359  0.82207953     0.16000
C3295       C  0.14863071  0.98727597  0.81387389     0.25400
C3296       C  0.15310500  0.99987117  0.78558474    -0.40900
C3297       C  0.14574807  0.01266200  0.76598731     0.32400
C3298       C  0.13417218  0.01264247  0.77415434     0.14100
F3299       F  0.13312455  0.97526680  0.84993253    -0.13200
F3300       F  0.14969939  0.02474814  0.73814579    -0.13800
F3301       F  0.15548295  0.97521356  0.83441785    -0.16000
F3302       F  0.12721771  0.02463926  0.75392702    -0.14600
F3303       F  0.11827415  0.03387259  0.83141175    -0.14600
F3304       F  0.09374274  0.96533219  0.80844195    -0.16000
C3305       C  0.25766494  0.01521797  0.09345732     0.14000
C3306       C  0.25459719  0.00398984  0.12557627     0.01000
C3307       C  0.26194821  0.98924178  0.13886527     0.16000
C3308       C  0.27213929  0.98568178  0.12042766     0.25400
C3309       C  0.27543366  0.99728930  0.08889079    -0.40900
C3310       C  0.26803551  0.01203409  0.07549220     0.32400
C3311       C  0.24358890  0.00714127  0.14450519     0.01100
F3312       F  0.25941271  0.97864026  0.17056519    -0.13300
F3313       F  0.27079947  0.02328162  0.04487897    -0.13800
C3314       C  0.23606124  0.99117893  0.14883286     0.16000
C3315       C  0.22537233  0.99423461  0.16417315     0.25400
C3316       C  0.22189641  0.01345572  0.17514579    -0.40900
C3317       C  0.22969270  0.02922545  0.17276204     0.32400
C3318       C  0.24043696  0.02607005  0.15763632     0.14100
F3319       F  0.23883658  0.97272087  0.13634357    -0.13200
F3320       F  0.22686840  0.04780696  0.18441620    -0.13800
F3321       F  0.21822334  0.97848959  0.16598328    -0.16000
F3322       F  0.24774080  0.04156822  0.15549678    -0.14600
F3323       F  0.25056104  0.02915741  0.07924880    -0.14600
F3324       F  0.27899343  0.97139120  0.13473796    -0.16000
C3325       C  0.18975512  0.90248044  0.22415813     0.14000
C3326       C  0.19188727  0.89442080  0.18820742     0.01000
C3327       C  0.19317387  0.90724650  0.15690537     0.16000
C3328       C  0.19180234  0.92783463  0.16124295     0.25400
C3329       C  0.18890496  0.93572733  0.19681560    -0.40900
C3330       C  0.18823426  0.92294319  0.22842374     0.32400
C3331       C  0.19084675  0.87272359  0.18244023     0.01100
F3332       F  0.19525916  0.89969051  0.12188388    -0.13300
F3333       F  0.18589387  0.93027196  0.26347248    -0.13800
C3334       C  0.18114606  0.86537736  0.16480568     0.16000
C3335       C  0.17963254  0.84499842  0.15986563     0.25400
C3336       C  0.18792889  0.83132655  0.17193466    -0.40900
C3337       C  0.19760253  0.83873851  0.19041145     0.32400
C3338       C  0.19899766  0.85931569  0.19585956     0.14100
F3339       F  0.17302033  0.87806203  0.15260819    -0.13200
F3340       F  0.20585792  0.82621488  0.20208617    -0.13800
F3341       F  0.16996961  0.83875067  0.14304434    -0.16000
F3342       F  0.20839325  0.86619478  0.21344316    -0.14600
F3343       F  0.18845443  0.89039423  0.25472854    -0.14600
F3344       F  0.19258550  0.93984332  0.13037133    -0.16000
C3345       C  0.18741310  0.99203507  0.93938664     0.14000
C3346       C  0.19071186  0.01002132  0.95629247     0.01000
C3347       C  0.19429291  0.02577724  0.93281126     0.16000
C3348       C  0.19415932  0.02378691  0.89316517     0.25400
C3349       C  0.19078170  0.00576231  0.87624911    -0.40900
C3350       C  0.18762345  0.98979065  0.90008962     0.32400
C3351       C  0.19000399  0.01230981  0.99823147     0.01100
F3352       F  0.19795903  0.04311067  0.94823737    -0.13300
F3353       F  0.18419144  0.97208472  0.88555535    -0.13800
C3354       C  0.19461323  0.99775806  0.02240108     0.16000
C3355       C  0.19326790  0.99910178  0.06169879     0.25400
C3356       C  0.18759638  0.01537036  0.07791284    -0.40900
C3357       C  0.18318392  0.03016699  0.05384420     0.32400
C3358       C  0.18422292  0.02848311  0.01439669     0.14100
F3359       F  0.20065335  0.98237330  0.00802807    -0.13200
F3360       F  0.17771872  0.04615764  0.06842432    -0.13800
F3361       F  0.19798056  0.98487857  0.08397910    -0.16000
F3362       F  0.17933233  0.04244960  0.99198697    -0.14600
F3363       F  0.18347846  0.97675598  0.96085479    -0.14600
F3364       F  0.19733560  0.03950462  0.87146750    -0.16000
C3365       C  0.17706868  0.02471734  0.51590575     0.14000
C3366       C  0.18301485  0.00930682  0.49811219     0.01000
C3367       C  0.18861784  0.99511173  0.52037437     0.16000
C3368       C  0.18851041  0.99654231  0.55991883     0.25400
C3369       C  0.18281350  0.01229502  0.57795145    -0.40900
C3370       C  0.17693951  0.02620158  0.55549171     0.32400
C3371       C  0.18326573  0.00781637  0.45630656     0.01100
F3372       F  0.19454820  0.98023914  0.50369519    -0.13300
F3373       F  0.17108776  0.04127908  0.57180202    -0.13800
C3374       C  0.18811281  0.02295634  0.43421840     0.16000
C3375       C  0.18843000  0.02131886  0.39462255     0.25400
C3376       C  0.18386978  0.00445921  0.37640704    -0.40900
C3377       C  0.17889224  0.98942527  0.39895696     0.32400
C3378       C  0.17866215  0.99109660  0.43840036     0.14100
F3379       F  0.19271485  0.03919301  0.45108999    -0.13200
F3380       F  0.17396775  0.97321125  0.38303167    -0.13800
F3381       F  0.19329615  0.03617226  0.37430450    -0.16000
F3382       F  0.17371662  0.97650022  0.45921246    -0.14600
F3383       F  0.17135870  0.03829624  0.49486882    -0.14600
F3384       F  0.19449317  0.98308369  0.58037343    -0.16000
C3385       C  0.18630222  0.15933375  0.29501908     0.14000
C3386       C  0.18862790  0.14263137  0.31761500     0.01000
C3387       C  0.19184068  0.14532843  0.35559132     0.16000
C3388       C  0.19279060  0.16445194  0.37078969     0.25400
C3389       C  0.19040722  0.18128682  0.34832529    -0.40900
C3390       C  0.18709503  0.17847971  0.31028056     0.32400
C3391       C  0.18821755  0.12240496  0.30124072     0.01100
F3392       F  0.19432392  0.12939685  0.37773944    -0.13300
F3393       F  0.18486104  0.19425201  0.28750299    -0.13800
C3394       C  0.19560585  0.11721630  0.27189677     0.16000
C3395       C  0.19567644  0.09791247  0.25736099     0.25400
C3396       C  0.18830511  0.08326891  0.27189890    -0.40900
C3397       C  0.18077517  0.08866587  0.30113378     0.32400
C3398       C  0.18076440  0.10805401  0.31564969     0.14100
F3399       F  0.20297949  0.13079296  0.25785544    -0.13200
F3400       F  0.17339093  0.07528177  0.31575044    -0.13800
F3401       F  0.20306007  0.09366102  0.22910982    -0.16000
F3402       F  0.17339815  0.11290340  0.34360909    -0.14600
F3403       F  0.18324766  0.15708194  0.25811840    -0.14600
F3404       F  0.19592371  0.16642111  0.40766890    -0.16000
C3405       C  0.11388325  0.99788843  0.34345495     0.14000
C3406       C  0.11634783  0.01053102  0.31285376     0.01000
C3407       C  0.10786196  0.02241124  0.29720234     0.16000
C3408       C  0.09687607  0.02113833  0.31108482     0.25400
C3409       C  0.09424822  0.00781682  0.34065665    -0.40900
C3410       C  0.10288081  0.99642435  0.35714394     0.32400
C3411       C  0.12765049  0.01034255  0.29594358     0.01100
F3412       F  0.11010961  0.03440833  0.26713853    -0.13300
F3413       F  0.10060039  0.98352764  0.38580125    -0.13800
C3414       C  0.13103281  0.99407955  0.27385727     0.16000
C3415       C  0.14214154  0.99260531  0.26137626     0.25400
C3416       C  0.15005448  0.00736631  0.27108623    -0.40900
C3417       C  0.14639633  0.02436554  0.29102280     0.32400
C3418       C  0.13525466  0.02577972  0.30341958     0.14100
F3419       F  0.12363420  0.97931869  0.26544042    -0.13200
F3420       F  0.15375060  0.03892484  0.30101037    -0.13800
F3421       F  0.14523943  0.97641613  0.24085812    -0.16000
F3422       F  0.13203836  0.04166192  0.32456750    -0.14600
F3423       F  0.12210086  0.98657896  0.35930491    -0.14600
F3424       F  0.08865120  0.03173662  0.29357608    -0.16000
C3425       C  0.79860507  0.99589989  0.47515714     0.14000
C3426       C  0.80662857  0.00762680  0.49391270     0.01000
C3427       C  0.81486436  0.01768522  0.47260199     0.16000
C3428       C  0.81516667  0.01581087  0.43305568     0.25400
C3429       C  0.80728736  0.00369571  0.41428088    -0.40900
C3430       C  0.79893968  0.99387135  0.43576665     0.32400
C3431       C  0.80654691  0.00898901  0.53578381     0.01100
F3432       F  0.82282317  0.02885204  0.49024299    -0.13300
F3433       F  0.79095438  0.98251204  0.41863926    -0.13800
C3434       C  0.80793372  0.99182451  0.55798377     0.16000
C3435       C  0.80827107  0.99313076  0.59759199     0.25400
C3436       C  0.80724477  0.01172809  0.61583742    -0.40900
C3437       C  0.80557252  0.02885010  0.59323341     0.32400
C3438       C  0.80523631  0.02744583  0.55368640     0.14100
F3439       F  0.80936857  0.97383280  0.54117116    -0.13200
F3440       F  0.80431645  0.04708376  0.60921347    -0.13800
F3441       F  0.81003569  0.97623448  0.61780702    -0.16000
F3442       F  0.80360367  0.04416623  0.53277707    -0.14600
F3443       F  0.79036143  0.98654656  0.49504140    -0.14600
F3444       F  0.82340053  0.02525797  0.41332804    -0.16000
C3445       C  0.81036842  0.01917433  0.97256076     0.14000
C3446       C  0.81036153  0.00184016  0.99485752     0.01000
C3447       C  0.81106737  0.98327138  0.97695301     0.16000
C3448       C  0.81178839  0.98196294  0.93749276     0.25400
C3449       C  0.81162946  0.99929914  0.91470131    -0.40900
C3450       C  0.81093425  0.01795572  0.93291655     0.32400
C3451       C  0.80974643  0.00303381  0.03682102     0.01100
F3452       F  0.81074077  0.96626145  0.99772421    -0.13300
F3453       F  0.81049656  0.03507470  0.91253332    -0.13800
C3454       C  0.80073395  0.01281677  0.05470531     0.16000
C3455       C  0.80039468  0.01443498  0.09429311     0.25400
C3456       C  0.80892450  0.00593894  0.11660542    -0.40900
C3457       C  0.81779052  0.99573131  0.09881005     0.32400
C3458       C  0.81823244  0.99439652  0.05923569     0.14100
F3459       F  0.79223402  0.02070785  0.03382525    -0.13200
F3460       F  0.82636705  0.98804266  0.11964868    -0.13800
F3461       F  0.79172213  0.02424850  0.11092498    -0.16000
F3462       F  0.82717497  0.98530233  0.04269525    -0.14600
F3463       F  0.80986384  0.03735265  0.98922836    -0.14600
F3464       F  0.81240656  0.96354661  0.92182220    -0.16000
C3465       C  0.98877377  0.98477676  0.51958963     0.14000
C3466       C  0.99199537  0.00367795  0.50646803     0.01000
C3467       C  0.98451380  0.01970253  0.51036975     0.16000
C3468       C  0.97393194  0.01688620  0.52662376     0.25400
C3469       C  0.97056238  0.99789781  0.53912224    -0.40900
C3470       C  0.97810792  0.98185887  0.53551256     0.32400
C3471       C  0.00313346  0.00692034  0.48872819     0.01100
F3472       F  0.98731938  0.03802895  0.49718611    -0.13300
F3473       F  0.97516687  0.96335339  0.54735986    -0.13800
C3474       C  0.00642074  0.99614370  0.45634148     0.16000
C3475       C  0.01682745  0.99989795  0.43902329     0.25400
C3476       C  0.02397082  0.01480476  0.45337130    -0.40900
C3477       C  0.02064951  0.02542363  0.48602287     0.32400
C3478       C  0.01039747  0.02140554  0.50359667     0.14100
F3479       F  0.99947063  0.98222782  0.44113618    -0.13200
F3480       F  0.02757796  0.03908314  0.50223479    -0.13800
F3481       F  0.01986771  0.98909639  0.40814504    -0.16000
F3482       F  0.00766246  0.03139038  0.53581169    -0.14600
F3483       F  0.99599126  0.96918602  0.51725004    -0.14600
F3484       F  0.96676349  0.03258414  0.52815095    -0.16000
C3485       C  0.88272243  0.01490829  0.64206496     0.14000
C3486       C  0.87897784  0.00201604  0.67086120     0.01000
C3487       C  0.88660529  0.98861345  0.68741223     0.16000
C3488       C  0.89795008  0.98897037  0.67701457     0.25400
C3489       C  0.90184049  0.00305721  0.65059752    -0.40900
C3490       C  0.89408871  0.01560555  0.63235144     0.32400
C3491       C  0.86740851  0.00392277  0.68582588     0.01100
F3492       F  0.88325376  0.97622422  0.71566320    -0.13300
F3493       F  0.89759371  0.02904075  0.60607426    -0.13800
C3494       C  0.86011722  0.98749460  0.68728713     0.16000
C3495       C  0.84902650  0.98980584  0.69990452     0.25400
C3496       C  0.84501775  0.00869554  0.71089558    -0.40900
C3497       C  0.85259216  0.02486168  0.71131127     0.32400
C3498       C  0.86363928  0.02247072  0.69891618     0.14100
F3499       F  0.86359274  0.96937614  0.67501901    -0.13200
F3500       F  0.84931898  0.04314833  0.72335373    -0.13800
F3501       F  0.84212293  0.97370825  0.69969617    -0.16000
F3502       F  0.87068385  0.03839448  0.69955790    -0.14600
F3503       F  0.87542541  0.02740575  0.62442738    -0.14600
F3504       F  0.90527356  0.97676038  0.69523063    -0.16000
C3505       C  0.98865654  0.98566899  0.00698842     0.14000
C3506       C  0.99389654  0.00435763  0.00740194     0.01000
C3507       C  0.98874950  0.02007538  0.02708298     0.16000
C3508       C  0.97831449  0.01731649  0.04498163     0.25400
C3509       C  0.97277890  0.99872900  0.04333029    -0.40900
C3510       C  0.97829381  0.98280082  0.02487280     0.32400
C3511       C  0.00496551  0.00704492  0.98858551     0.01100
F3512       F  0.99388192  0.03808747  0.02919430    -0.13300
F3513       F  0.97354775  0.96445376  0.02283336    -0.13800
C3514       C  0.00634481  0.02047304  0.95826220     0.16000
C3515       C  0.01693827  0.02297909  0.94116223     0.25400
C3516       C  0.02624477  0.01187350  0.95386003    -0.40900
C3517       C  0.02472162  0.99812215  0.98359382     0.32400
C3518       C  0.01422564  0.99582065  0.00082863     0.14100
F3519       F  0.99741081  0.03096696  0.94501780    -0.13200
F3520       F  0.03356838  0.98760712  0.99746448    -0.13800
F3521       F  0.01807596  0.03603979  0.91202332    -0.16000
F3522       F  0.01317360  0.98301686  0.03043414    -0.14600
F3523       F  0.99345896  0.97021561  0.98822303    -0.14600
F3524       F  0.97362098  0.03293523  0.06354020    -0.16000
C3525       C  0.93143346  0.98292944  0.89667775     0.14000
C3526       C  0.93472040  0.00023290  0.87749663     0.01000
C3527       C  0.93756551  0.01725336  0.89855806     0.16000
C3528       C  0.93764162  0.01671088  0.93833118     0.25400
C3529       C  0.93480357  0.99907867  0.95784673    -0.40900
C3530       C  0.93141946  0.98233524  0.93637198     0.32400
C3531       C  0.93492741  0.00069956  0.83546728     0.01100
F3532       F  0.94059194  0.03427452  0.88049091    -0.13300
F3533       F  0.92812249  0.96525169  0.95367940    -0.13800
C3534       C  0.92724000  0.01265549  0.81587641     0.16000
C3535       C  0.92750482  0.01367518  0.77634631     0.25400
C3536       C  0.93557379  0.00285654  0.75533325    -0.40900
C3537       C  0.94310871  0.99042568  0.77497105     0.32400
C3538       C  0.94279325  0.98939878  0.81480968     0.14100
F3539       F  0.91939565  0.02330848  0.83513702    -0.13200
F3540       F  0.95101771  0.97988558  0.75583512    -0.13800
F3541       F  0.91972045  0.02517985  0.75859722    -0.16000
F3542       F  0.95038192  0.97785969  0.83334661    -0.14600
F3543       F  0.92815554  0.96659914  0.87686811    -0.14600
F3544       F  0.94093215  0.03323173  0.95751958    -0.16000
C3545       C  0.93056388  0.02449269  0.31611262     0.14000
C3546       C  0.93537437  0.00853781  0.33580452     0.01000
C3547       C  0.94170599  0.99431710  0.31583160     0.16000
C3548       C  0.94315278  0.99597729  0.27648133     0.25400
C3549       C  0.93839052  0.01205763  0.25666027    -0.40900
C3550       C  0.93202762  0.02625046  0.27698771     0.32400
C3551       C  0.93395653  0.00692526  0.37732921     0.01100
F3552       F  0.94662418  0.97899191  0.33463389    -0.13300
F3553       F  0.92676729  0.04144226  0.25879539    -0.13800
C3554       C  0.92840620  0.99048865  0.39321114     0.16000
C3555       C  0.92790210  0.98815023  0.43261802     0.25400
C3556       C  0.93296893  0.00226428  0.45681691    -0.40900
C3557       C  0.93801040  0.01927738  0.44065316     0.32400
C3558       C  0.93847789  0.02155977  0.40128060     0.14100
F3559       F  0.92359763  0.97657401  0.37044959    -0.13200
F3560       F  0.94315798  0.03312035  0.46272873    -0.13800
F3561       F  0.92263215  0.97188811  0.44700826    -0.16000
F3562       F  0.94387384  0.03759163  0.38646676    -0.14600
F3563       F  0.92419869  0.03813938  0.33470370    -0.14600
F3564       F  0.94929841  0.98203042  0.25793135    -0.16000
C3565       C  0.86344243  0.99441567  0.21622821     0.14000
C3566       C  0.86833464  0.00792605  0.19067490     0.01000
C3567       C  0.86156678  0.02228077  0.17316978     0.16000
C3568       C  0.85014242  0.02357229  0.18166861     0.25400
C3569       C  0.84513638  0.01045648  0.20813593    -0.40900
C3570       C  0.85192186  0.99562511  0.22491172     0.32400
C3571       C  0.88061157  0.00831016  0.18387101     0.01100
F3572       F  0.86609176  0.03524261  0.14781446    -0.13300
F3573       F  0.84752017  0.98262066  0.25037991    -0.13800
C3574       C  0.88601981  0.99303070  0.16377899     0.16000
C3575       C  0.89747841  0.99464407  0.15459121     0.25400
C3576       C  0.90367489  0.01167474  0.16523571    -0.40900
C3577       C  0.89819735  0.02665748  0.18638738     0.32400
C3578       C  0.88682060  0.02496728  0.19543650     0.14100
F3579       F  0.88011471  0.97688452  0.15198259    -0.13200
F3580       F  0.90384421  0.04295573  0.19892902    -0.13800
F3581       F  0.90240170  0.97976997  0.13455524    -0.16000
F3582       F  0.88179474  0.03975035  0.21547834    -0.14600
F3583       F  0.86990128  0.98050723  0.23368476    -0.14600
F3584       F  0.84401100  0.03771767  0.16354002    -0.16000
C3585       C  0.80321689  0.89684634  0.73190498     0.14000
C3586       C  0.80819083  0.89221779  0.69695959     0.01000
C3587       C  0.81277036  0.90756427  0.67469999     0.16000
C3588       C  0.81242108  0.92729734  0.68727484     0.25400
C3589       C  0.80742943  0.93205048  0.72240334    -0.40900
C3590       C  0.80281793  0.91652113  0.74453835     0.32400
C3591       C  0.80842742  0.87142553  0.68331514     0.01100
F3592       F  0.81773183  0.90336184  0.64092837    -0.13300
F3593       F  0.79805685  0.92023002  0.77884652    -0.13800
C3594       C  0.80280540  0.86631879  0.64975168     0.16000
C3595       C  0.80331292  0.84693672  0.63574641     0.25400
C3596       C  0.80949164  0.83210683  0.65513350    -0.40900
C3597       C  0.81486315  0.83719905  0.68950338     0.32400
C3598       C  0.81430677  0.85668700  0.70344933     0.14100
F3599       F  0.79672635  0.88015784  0.63057501    -0.13200
F3600       F  0.82069666  0.82342139  0.70963370    -0.13800
F3601       F  0.79782201  0.84289023  0.60282000    -0.16000
F3602       F  0.81971641  0.86129217  0.73624788    -0.14600
F3603       F  0.79860183  0.88229129  0.75364544    -0.14600
F3604       F  0.81691126  0.94169081  0.66488921    -0.16000
C3605       C  0.80452601  0.77636446  0.89879562     0.14000
C3606       C  0.80991185  0.76028615  0.88131514     0.01000
C3607       C  0.81528626  0.74592425  0.90388276     0.16000
C3608       C  0.81521487  0.74753418  0.94353806     0.25400
C3609       C  0.80973102  0.76359819  0.96137353    -0.40900
C3610       C  0.80438544  0.77802161  0.93828040     0.32400
C3611       C  0.80990657  0.75853639  0.83947593     0.01100
F3612       F  0.82077864  0.73049101  0.88738526    -0.13300
F3613       F  0.79878139  0.79365552  0.95367471    -0.13800
C3614       C  0.81522893  0.77304841  0.81710422     0.16000
C3615       C  0.81546938  0.77115746  0.77760265     0.25400
C3616       C  0.81030899  0.75477558  0.75977983    -0.40900
C3617       C  0.80485542  0.74038821  0.78222671     0.32400
C3618       C  0.80461412  0.74232153  0.82176165     0.14100
F3619       F  0.82050789  0.78873313  0.83364327    -0.13200
F3620       F  0.79970869  0.72451777  0.76587674    -0.13800
F3621       F  0.82126748  0.78479645  0.75693830    -0.16000
F3622       F  0.79913229  0.72845350  0.84282352    -0.14600
F3623       F  0.79918040  0.79032177  0.87754761    -0.14600
F3624       F  0.82063669  0.73348529  0.96428263    -0.16000
C3625       C  0.81781511  0.74527567  0.40339411     0.14000
C3626       C  0.81556468  0.76219703  0.38119660     0.01000
C3627       C  0.81448424  0.78070431  0.39906128     0.16000
C3628       C  0.81522649  0.78225815  0.43845457     0.25400
C3629       C  0.81686985  0.76516608  0.46131331    -0.40900
C3630       C  0.81839171  0.74668303  0.44307284     0.32400
C3631       C  0.81395843  0.76059345  0.33956438     0.01100
F3632       F  0.81217092  0.79727540  0.37843473    -0.13300
F3633       F  0.82023753  0.72987356  0.46347593    -0.13800
C3634       C  0.80565362  0.74791016  0.32455774     0.16000
C3635       C  0.80414329  0.74635205  0.28526138     0.25400
C3636       C  0.81074490  0.75779794  0.26034789    -0.40900
C3637       C  0.81884069  0.77089629  0.27546432     0.32400
C3638       C  0.82048459  0.77216512  0.31466168     0.14100
F3639       F  0.79892554  0.73717256  0.34803129    -0.13200
F3640       F  0.82564222  0.78163527  0.25220202    -0.13800
F3641       F  0.79621654  0.73369212  0.27155765    -0.16000
F3642       F  0.82872190  0.78423566  0.32825552    -0.14600
F3643       F  0.81937941  0.72732464  0.38658358    -0.14600
F3644       F  0.81380460  0.80056013  0.45400646    -0.16000
C3645       C  0.81609699  0.85623627  0.20251031     0.14000
C3646       C  0.81071239  0.87186634  0.18339393     0.01000
C3647       C  0.80515035  0.86812859  0.14902120     0.16000
C3648       C  0.80478106  0.84896899  0.13414486     0.25400
C3649       C  0.81003602  0.83311167  0.15335116    -0.40900
C3650       C  0.81579931  0.83698466  0.18759109     0.32400
C3651       C  0.81051504  0.89205490  0.19952314     0.01100
F3652       F  0.80011308  0.88315621  0.12966866    -0.13300
F3653       F  0.82092630  0.82213635  0.20715913    -0.13800
C3654       C  0.82054469  0.90269950  0.20538293     0.16000
C3655       C  0.82017314  0.92231125  0.21852662     0.25400
C3656       C  0.80976083  0.93141958  0.22598246    -0.40900
C3657       C  0.79976025  0.92057804  0.22064038     0.32400
C3658       C  0.80014466  0.90105153  0.20763373     0.14100
F3659       F  0.83065699  0.89419936  0.19780975    -0.13200
F3660       F  0.78957341  0.92901274  0.22736231    -0.13800
F3661       F  0.82996198  0.93218607  0.22497327    -0.16000
F3662       F  0.79036888  0.89084129  0.20304302    -0.14600
F3663       F  0.82136703  0.85952502  0.23614129    -0.14600
F3664       F  0.79938524  0.84608018  0.10060302    -0.16000
C3665       C  0.98769732  0.73721517  0.86221429     0.14000
C3666       C  0.99648095  0.75061913  0.85479909     0.01000
C3667       C  0.99477289  0.76618650  0.82886235     0.16000
C3668       C  0.98423832  0.76893975  0.81196428     0.25400
C3669       C  0.97528281  0.75598646  0.82041913    -0.40900
C3670       C  0.97719301  0.73979989  0.84505363     0.32400
C3671       C  0.00740901  0.74855123  0.87439073     0.01100
F3672       F  0.00331186  0.77882402  0.82020518    -0.13300
F3673       F  0.96869378  0.72724210  0.85461024    -0.13800
C3674       C  0.01420628  0.73196947  0.86743390     0.16000
C3675       C  0.02484271  0.73052225  0.88404798     0.25400
C3676       C  0.02891550  0.74569207  0.90833756    -0.40900
C3677       C  0.02182720  0.76199321  0.91629512     0.32400
C3678       C  0.01119112  0.76338564  0.89937850     0.14100
F3679       F  0.01070241  0.71748160  0.84329797    -0.13200
F3680       F  0.02518729  0.77674732  0.94004409    -0.13800
F3681       F  0.03126825  0.71453005  0.87497110    -0.16000
F3682       F  0.00455896  0.77928378  0.90728542    -0.14600
F3683       F  0.98914673  0.72216802  0.88746136    -0.14600
F3684       F  0.98274475  0.78442244  0.78774965    -0.16000
C3685       C  0.93688252  0.85236664  0.66735110     0.14000
C3686       C  0.94310333  0.86760357  0.68465901     0.01000
C3687       C  0.95000845  0.86317380  0.71572922     0.16000
C3688       C  0.95061079  0.84376808  0.72979640     0.25400
C3689       C  0.94418260  0.82835456  0.71318845    -0.40900
C3690       C  0.93737320  0.83291694  0.68146437     0.32400
C3691       C  0.94241448  0.88819026  0.67032137     0.01100
F3692       F  0.95619017  0.87772557  0.73247496    -0.13300
F3693       F  0.93108553  0.81867921  0.66418098    -0.13800
C3694       C  0.93600973  0.90244263  0.68968927     0.16000
C3695       C  0.93526612  0.92193432  0.67594508     0.25400
C3696       C  0.94104352  0.92759324  0.64260427    -0.40900
C3697       C  0.94766406  0.91316341  0.62377143     0.32400
C3698       C  0.94827489  0.89367301  0.63747952     0.14100
F3699       F  0.93037992  0.89738814  0.72181038    -0.13200
F3700       F  0.95357922  0.91777056  0.59199008    -0.13800
F3701       F  0.92883965  0.93516388  0.69532674    -0.16000
F3702       F  0.95469540  0.88012324  0.61886829    -0.14600
F3703       F  0.93017189  0.85643498  0.63712925    -0.14600
F3704       F  0.95740929  0.84024444  0.76003552    -0.16000
C3705       C  0.88632794  0.74199102  0.72818926     0.14000
C3706       C  0.88215159  0.75744787  0.70542528     0.01000
C3707       C  0.88958902  0.77183685  0.69109520     0.16000
C3708       C  0.90118271  0.76994735  0.69707967     0.25400
C3709       C  0.90544301  0.75357839  0.71737787    -0.40900
C3710       C  0.89788439  0.74002838  0.73406713     0.32400
C3711       C  0.87034254  0.75690182  0.69253580     0.01100
F3712       F  0.88568937  0.78691608  0.66912364    -0.13300
F3713       F  0.90170918  0.72460507  0.75536599    -0.13800
C3714       C  0.86269161  0.77189491  0.70256556     0.16000
C3715       C  0.85146789  0.77075434  0.69052506     0.25400
C3716       C  0.84778217  0.75453595  0.66843581    -0.40900
C3717       C  0.85557427  0.73984216  0.65773028     0.32400
C3718       C  0.86674331  0.74105337  0.66962153     0.14100
F3719       F  0.86599431  0.78718800  0.72513582    -0.13200
F3720       F  0.85236667  0.72423099  0.63578251    -0.13800
F3721       F  0.84408955  0.78490026  0.70215704    -0.16000
F3722       F  0.87409757  0.72668073  0.65881023    -0.14600
F3723       F  0.87921321  0.72833761  0.74344027    -0.14600
F3724       F  0.90826425  0.78327262  0.68068205    -0.16000
C3725       C  0.99009412  0.74809366  0.34679032     0.14000
C3726       C  0.99455935  0.76384869  0.36836113     0.01000
C3727       C  0.98872926  0.78198918  0.36935401     0.16000
C3728       C  0.97860694  0.78432136  0.34966813     0.25400
C3729       C  0.97379945  0.76830664  0.32926915    -0.40900
C3730       C  0.97977702  0.75017417  0.32787897     0.32400
C3731       C  0.00533470  0.76149672  0.38946005     0.01100
F3732       F  0.99262300  0.79736293  0.39064434    -0.13300
F3733       F  0.97554537  0.73417983  0.30916410    -0.13800
C3734       C  0.01411240  0.77526516  0.38432595     0.16000
C3735       C  0.02443312  0.77265950  0.40261410     0.25400
C3736       C  0.02636647  0.75584393  0.42570446    -0.40900
C3737       C  0.01742252  0.74252099  0.43216849     0.32400
C3738       C  0.00698589  0.74541901  0.41447131     0.14100
F3739       F  0.01292953  0.79075483  0.35991144    -0.13200
F3740       F  0.01881903  0.72650762  0.45516596    -0.13800
F3741       F  0.03276312  0.78599593  0.39547405    -0.16000
F3742       F  0.99850662  0.73239562  0.42156463    -0.14600
F3743       F  0.99573439  0.73060364  0.34399012    -0.14600
F3744       F  0.97336111  0.80220898  0.35192515    -0.16000
C3745       C  0.93490974  0.77263217  0.47526588     0.14000
C3746       C  0.94142817  0.75704638  0.49009151     0.01000
C3747       C  0.94660829  0.74361887  0.46517904     0.16000
C3748       C  0.94530142  0.74567632  0.42599410     0.25400
C3749       C  0.93875585  0.76127120  0.41083205    -0.40900
C3750       C  0.93357755  0.77475900  0.43598865     0.32400
C3751       C  0.94227485  0.75407161  0.53157514     0.01100
F3752       F  0.95314617  0.72869746  0.47886298    -0.13300
F3753       F  0.92717660  0.78995381  0.42267376    -0.13800
C3754       C  0.93780735  0.73678863  0.54792289     0.16000
C3755       C  0.93779045  0.73431430  0.58724834     0.25400
C3756       C  0.94230897  0.74913995  0.61128180    -0.40900
C3757       C  0.94723575  0.76612934  0.59453728     0.32400
C3758       C  0.94716711  0.76857771  0.55503868     0.14100
F3759       F  0.93302000  0.72258748  0.52574410    -0.13200
F3760       F  0.95208031  0.78045336  0.61625936    -0.13800
F3761       F  0.93290235  0.71767957  0.60161413    -0.16000
F3762       F  0.95186920  0.78512987  0.53964777    -0.14600
F3763       F  0.92966988  0.78559338  0.49892299    -0.14600
F3764       F  0.95087866  0.73285749  0.40293835    -0.16000
C3765       C  0.93384259  0.74344336  0.04917523     0.14000
C3766       C  0.93921179  0.75942821  0.03118820     0.01000
C3767       C  0.94444692  0.77413270  0.05349614     0.16000
C3768       C  0.94447360  0.77264083  0.09324117     0.25400
C3769       C  0.93939730  0.75622752  0.11133652    -0.40900
C3770       C  0.93395749  0.74177451  0.08862298     0.32400
C3771       C  0.93928455  0.76055002  0.98915244     0.01100
F3772       F  0.94973701  0.78973627  0.03674282    -0.13300
F3773       F  0.92845839  0.72612073  0.10445739    -0.13800
C3774       C  0.93469795  0.77708849  0.97034639     0.16000
C3775       C  0.93465118  0.77795841  0.93066967     0.25400
C3776       C  0.93903155  0.76214995  0.90909493    -0.40900
C3777       C  0.94342516  0.74542448  0.92793194     0.32400
C3778       C  0.94363853  0.74471678  0.96758684     0.14100
F3779       F  0.93009812  0.79226698  0.99042441    -0.13200
F3780       F  0.94799526  0.73014860  0.90799919    -0.13800
F3781       F  0.93020449  0.79417379  0.91329609    -0.16000
F3782       F  0.94837229  0.72876011  0.98499096    -0.14600
F3783       F  0.92825776  0.72955011  0.02843648    -0.14600
F3784       F  0.94962968  0.78707518  0.11382941    -0.16000
C3785       C  0.94304272  0.89675426  0.14375281     0.14000
C3786       C  0.93967314  0.89331004  0.18127643     0.01000
C3787       C  0.93653944  0.90939846  0.20431271     0.16000
C3788       C  0.93656445  0.92876111  0.18971829     0.25400
C3789       C  0.93991555  0.93231058  0.15195418    -0.40900
C3790       C  0.94321599  0.91605740  0.12920208     0.32400
C3791       C  0.93965379  0.87288167  0.19642191     0.01100
F3792       F  0.93342398  0.90630155  0.24091197    -0.13300
F3793       F  0.94646011  0.91874007  0.09259099    -0.13800
C3794       C  0.94793151  0.86699165  0.22236259     0.16000
C3795       C  0.94825236  0.84742606  0.23561772     0.25400
C3796       C  0.94023161  0.83332710  0.22313147    -0.40900
C3797       C  0.93181510  0.83948238  0.19745463     0.32400
C3798       C  0.93158268  0.85907782  0.18411529     0.14100
F3799       F  0.95585512  0.88015361  0.23429012    -0.13200
F3800       F  0.92367718  0.82669948  0.18570965    -0.13800
F3801       F  0.95653465  0.84232743  0.26033112    -0.16000
F3802       F  0.92340130  0.86468462  0.15942795    -0.14600
F3803       F  0.94632463  0.88138333  0.12135387    -0.14600
F3804       F  0.93354003  0.94402037  0.21277552    -0.16000
C3805       C  0.86469447  0.76755538  0.15244526     0.14000
C3806       C  0.86920135  0.75723631  0.18376454     0.01000
C3807       C  0.86186771  0.74703767  0.20818309     0.16000
C3808       C  0.85038230  0.74604902  0.20039105     0.25400
C3809       C  0.84585992  0.75551398  0.16814554    -0.40900
C3810       C  0.85307755  0.76680598  0.14481387     0.32400
C3811       C  0.88152712  0.75592228  0.19059638     0.01100
F3812       F  0.86588502  0.73786180  0.23973869    -0.13300
F3813       F  0.84898266  0.77641717  0.11385719    -0.13800
C3814       C  0.88804167  0.77294213  0.19777298     0.16000
C3815       C  0.89947109  0.77118711  0.20741030     0.25400
C3816       C  0.90464222  0.75228177  0.21008940    -0.40900
C3817       C  0.89799764  0.73529126  0.20254791     0.32400
C3818       C  0.88666223  0.73715109  0.19263180     0.14100
F3819       F  0.88327095  0.79126226  0.19639241    -0.13200
F3820       F  0.90241795  0.71670510  0.20435657    -0.13800
F3821       F  0.90540978  0.78806582  0.21425907    -0.16000
F3822       F  0.88064392  0.72045863  0.18481208    -0.14600
F3823       F  0.87156618  0.77770517  0.12850777    -0.14600
F3824       F  0.84365294  0.73588592  0.22479699    -0.16000
C3825       C  0.80275831  0.10952761  0.82369874     0.14000
C3826       C  0.81250139  0.12100828  0.81805823     0.01000
C3827       C  0.82258931  0.11154209  0.80824474     0.16000
C3828       C  0.82283114  0.09100333  0.80215731     0.25400
C3829       C  0.81296543  0.07947326  0.80604569    -0.40900
C3830       C  0.80298460  0.08887627  0.81786610     0.32400
C3831       C  0.81231993  0.14283138  0.82335785     0.01100
F3832       F  0.83220533  0.12227478  0.80426059    -0.13300
F3833       F  0.79332469  0.07828611  0.82179957    -0.13800
C3834       C  0.81383469  0.15079731  0.85969320     0.16000
C3835       C  0.81453193  0.17135720  0.86479798     0.25400
C3836       C  0.81371001  0.18443741  0.83356682    -0.40900
C3837       C  0.81192564  0.17645533  0.79716662     0.32400
C3838       C  0.81130586  0.15574500  0.79209183     0.14100
F3839       F  0.81493008  0.13858204  0.89017223    -0.13200
F3840       F  0.81133190  0.18858717  0.76643637    -0.13800
F3841       F  0.81603567  0.17850764  0.90050513    -0.16000
F3842       F  0.80996263  0.14823803  0.75661433    -0.14600
F3843       F  0.79297200  0.11841989  0.83393697    -0.14600
F3844       F  0.83273030  0.08240706  0.79209762    -0.16000
C3845       C  0.80611910  0.15696172  0.29020659     0.14000
C3846       C  0.81220473  0.14348903  0.31284515     0.01000
C3847       C  0.81929214  0.15085050  0.34130079     0.16000
C3848       C  0.82020945  0.17127394  0.34757465     0.25400
C3849       C  0.81401604  0.18501239  0.32540103    -0.40900
C3850       C  0.80696876  0.17754681  0.29648174     0.32400
C3851       C  0.81172017  0.12177383  0.30574199     0.01100
F3852       F  0.82556964  0.13819428  0.36261230    -0.13300
F3853       F  0.80088117  0.19006817  0.27431656    -0.13800
C3854       C  0.81587764  0.11411569  0.27156271     0.16000
C3855       C  0.81615930  0.09362824  0.26534597     0.25400
C3856       C  0.81226049  0.08020314  0.29329283    -0.40900
C3857       C  0.80801250  0.08792507  0.32757789     0.32400
C3858       C  0.80780870  0.10854816  0.33379315     0.14100
F3859       F  0.81999324  0.12651794  0.24448201    -0.13200
F3860       F  0.80430507  0.07557609  0.35539842    -0.13800
F3861       F  0.82021178  0.08701031  0.23159872    -0.16000
F3862       F  0.80382057  0.11564542  0.36725578    -0.14600
F3863       F  0.79927429  0.15013176  0.26222042    -0.14600
F3864       F  0.82720830  0.17745384  0.37568956    -0.16000
C3865       C  0.80888948  0.24295302  0.65464609     0.14000
C3866       C  0.81211021  0.25871925  0.63072671     0.01000
C3867       C  0.81695781  0.27580108  0.64676707     0.16000
C3868       C  0.81829933  0.27735345  0.68607414     0.25400
C3869       C  0.81494414  0.26170772  0.71023716    -0.40900
C3870       C  0.81040830  0.24432021  0.69396721     0.32400
C3871       C  0.81108732  0.25685950  0.58891644     0.01100
F3872       F  0.82054368  0.29092445  0.62426225    -0.13300
F3873       F  0.80694557  0.22897813  0.71613742    -0.13800
C3874       C  0.80512709  0.27098588  0.56725561     0.16000
C3875       C  0.80477754  0.26951630  0.52749335     0.25400
C3876       C  0.81024736  0.25372486  0.50894408    -0.40900
C3877       C  0.81616601  0.23964298  0.53089465     0.32400
C3878       C  0.81657976  0.24122105  0.57030850     0.14100
F3879       F  0.79960846  0.28612153  0.58464695    -0.13200
F3880       F  0.82206420  0.22476997  0.51408067    -0.13800
F3881       F  0.79902365  0.28335872  0.50725767    -0.16000
F3882       F  0.82275692  0.22783785  0.59028711    -0.14600
F3883       F  0.80399167  0.22640018  0.63995457    -0.14600
F3884       F  0.82287713  0.29425237  0.70049013    -0.16000
C3885       C  0.80897130  0.27502946  0.06816442     0.14000
C3886       C  0.81695758  0.26413419  0.08905732     0.01000
C3887       C  0.82474359  0.25219436  0.06992391     0.16000
C3888       C  0.82430165  0.25045225  0.03056100     0.25400
C3889       C  0.81595117  0.26046484  0.00949787    -0.40900
C3890       C  0.80847240  0.27323722  0.02851708     0.32400
C3891       C  0.81704459  0.26465448  0.13091241     0.01100
F3892       F  0.83281435  0.24223100  0.08949337    -0.13300
F3893       F  0.80046317  0.28336734  0.00900886    -0.13800
C3894       C  0.81426624  0.24752381  0.15172256     0.16000
C3895       C  0.81411449  0.24798411  0.19140317     0.25400
C3896       C  0.81668943  0.26569277  0.21093794    -0.40900
C3897       C  0.81993685  0.28261121  0.18979366     0.32400
C3898       C  0.82007845  0.28206566  0.15015755     0.14100
F3899       F  0.81132646  0.23050804  0.13347550    -0.13200
F3900       F  0.82291999  0.29978795  0.20741222    -0.13800
F3901       F  0.81092543  0.23136391  0.21048754    -0.16000
F3902       F  0.82319796  0.29854056  0.13048892    -0.14600
F3903       F  0.80145498  0.28687812  0.08630817    -0.14600
F3904       F  0.83218909  0.23913852  0.01292621    -0.16000
C3905       C  0.01811973  0.26513412  0.60927546     0.14000
C3906       C  0.00909270  0.25254628  0.61887720     0.01000
C3907       C  0.01068062  0.23816928  0.64748393     0.16000
C3908       C  0.02112478  0.23634518  0.66576910     0.25400
C3909       C  0.03004483  0.24926818  0.65661342    -0.40900
C3910       C  0.02840554  0.26370904  0.62827750     0.32400
C3911       C  0.99795201  0.25518877  0.60017115     0.01100
F3912       F  0.00207829  0.22610397  0.65817590    -0.13300
F3913       F  0.03699603  0.27575447  0.61736548    -0.13800
C3914       C  0.99221822  0.23912208  0.58326022     0.16000
C3915       C  0.98151313  0.24183729  0.56715916     0.25400
C3916       C  0.97639408  0.26075052  0.56724214    -0.40900
C3917       C  0.98241314  0.27691354  0.58287680     0.32400
C3918       C  0.99294510  0.27409087  0.59947210     0.14100
F3919       F  0.99696695  0.22077648  0.58236081    -0.13200
F3920       F  0.97787092  0.29542130  0.58433326    -0.13800
F3921       F  0.97612627  0.22590671  0.55192978    -0.16000
F3922       F  0.99803381  0.28981528  0.61655860    -0.14600
F3923       F  0.01707715  0.27853010  0.58063941    -0.14600
F3924       F  0.02250299  0.22205056  0.69259084    -0.16000
C3925       C  0.94273269  0.10549051  0.53621304     0.14000
C3926       C  0.94090161  0.11882196  0.56639685     0.01000
C3927       C  0.93845585  0.11135565  0.60253938     0.16000
C3928       C  0.93747908  0.09091826  0.60836170     0.25400
C3929       C  0.93903308  0.07743602  0.57812897    -0.40900
C3930       C  0.94196090  0.08487056  0.54214387     0.32400
C3931       C  0.94050828  0.14053312  0.55991195     0.01100
F3932       F  0.93654048  0.12395735  0.63194531    -0.13300
F3933       F  0.94352790  0.07230827  0.51246021    -0.13800
C3934       C  0.93109926  0.14884865  0.54205724     0.16000
C3935       C  0.93031103  0.16938895  0.53702688     0.25400
C3936       C  0.93904790  0.18215088  0.54926750    -0.40900
C3937       C  0.94835987  0.17376501  0.56825153     0.32400
C3938       C  0.94902905  0.15310677  0.57371738     0.14100
F3939       F  0.92254682  0.13702003  0.52997545    -0.13200
F3940       F  0.95694985  0.18541112  0.58060220    -0.13800
F3941       F  0.92090717  0.17673584  0.52020474    -0.16000
F3942       F  0.95805919  0.14530563  0.59202581    -0.14600
F3943       F  0.94500615  0.11249487  0.50089730    -0.14600
F3944       F  0.93490035  0.08430655  0.64375104    -0.16000
C3945       C  0.86232590  0.24531669  0.46151066     0.14000
C3946       C  0.86981923  0.25575483  0.43800955     0.01000
C3947       C  0.86560933  0.26600955  0.40620810     0.16000
C3948       C  0.85408793  0.26528331  0.39748401     0.25400
C3949       C  0.84671072  0.25395871  0.42005925    -0.40900
C3950       C  0.85092362  0.24426673  0.45246503     0.32400
C3951       C  0.88206111  0.25454099  0.44557935     0.01100
F3952       F  0.87271477  0.27595213  0.38273342    -0.13300
F3953       F  0.84395806  0.23382289  0.47564640    -0.13800
C3954       C  0.88729588  0.23586214  0.44629861     0.16000
C3955       C  0.89869771  0.23414966  0.45500514     0.25400
C3956       C  0.90526659  0.25120549  0.46267855    -0.40900
C3957       C  0.89997755  0.27001427  0.46173743     0.32400
C3958       C  0.88847225  0.27162236  0.45329499     0.14100
F3959       F  0.88134115  0.21915199  0.43808627    -0.13200
F3960       F  0.90592111  0.28691115  0.46839611    -0.13800
F3961       F  0.90324429  0.21563510  0.45587036    -0.16000
F3962       F  0.88355181  0.28983277  0.45317998    -0.14600
F3963       F  0.86610915  0.23590349  0.49314510    -0.14600
F3964       F  0.85024820  0.27481392  0.36607249    -0.16000
C3965       C  0.99446623  0.27254764  0.10145563     0.14000
C3966       C  0.99651731  0.25490166  0.12171029     0.01000
C3967       C  0.98815777  0.24012314  0.12275744     0.16000
C3968       C  0.97793638  0.24288067  0.10383256     0.25400
C3969       C  0.97580316  0.26061290  0.08377957    -0.40900
C3970       C  0.98418128  0.27544068  0.08285562     0.32400
C3971       C  0.00758102  0.25145818  0.14002955     0.01100
F3972       F  0.98978351  0.22319591  0.14305527    -0.13300
F3973       F  0.98242589  0.29274272  0.06389410    -0.13800
C3974       C  0.01192246  0.26487612  0.16694109     0.16000
C3975       C  0.02279768  0.26232513  0.18155702     0.25400
C3976       C  0.02948097  0.24612972  0.16980613    -0.40900
C3977       C  0.02484625  0.23226046  0.14407000     0.32400
C3978       C  0.01407167  0.23499104  0.12927112     0.14100
F3979       F  0.00566289  0.28057062  0.17879262    -0.13200
F3980       F  0.03095788  0.21660190  0.13118903    -0.13800
F3981       F  0.02683030  0.27591454  0.20663546    -0.16000
F3982       F  0.01019958  0.22202496  0.10274777    -0.14600
F3983       F  0.00249614  0.28688484  0.09925390    -0.14600
F3984       F  0.96989052  0.22861692  0.10693897    -0.16000
C3985       C  0.95029618  0.15497471  0.07341960     0.14000
C3986       C  0.94318537  0.14205901  0.05326277     0.01000
C3987       C  0.93531708  0.14982886  0.02781533     0.16000
C3988       C  0.93432598  0.17028835  0.02295231     0.25400
C3989       C  0.94121050  0.18356636  0.04375421    -0.40900
C3990       C  0.94938920  0.17562442  0.06851930     0.32400
C3991       C  0.94277555  0.12066235  0.06184945     0.01100
F3992       F  0.92827767  0.13750251  0.00855558    -0.13300
F3993       F  0.95643196  0.18774393  0.08818371    -0.13800
C3994       C  0.93527773  0.11402080  0.08966294     0.16000
C3995       C  0.93359247  0.09375535  0.09543111     0.25400
C3996       C  0.93940465  0.07955205  0.07325399    -0.40900
C3997       C  0.94701209  0.08633896  0.04536902     0.32400
C3998       C  0.94863036  0.10679069  0.03962497     0.14100
F3999       F  0.92928728  0.12729254  0.11053302    -0.13200
F4000       F  0.95274146  0.07328096  0.02327457    -0.13800
F4001       F  0.92616050  0.08819229  0.12273395    -0.16000
F4002       F  0.95569851  0.11308526  0.01184182    -0.14600
F4003       F  0.95791932  0.14758385  0.09840948    -0.14600
F4004       F  0.92646186  0.17695950  0.99804601    -0.16000
C4005       C  0.95168596  0.26861012  0.72479695     0.14000
C4006       C  0.94464489  0.25526622  0.74394328     0.01000
C4007       C  0.93729677  0.24304045  0.72302627     0.16000
C4008       C  0.93676820  0.24464934  0.68340050     0.25400
C4009       C  0.94354158  0.25862327  0.66426734    -0.40900
C4010       C  0.95115117  0.27032381  0.68547264     0.32400
C4011       C  0.94492071  0.25453611  0.78580822     0.01100
F4012       F  0.93041226  0.22997404  0.74106688    -0.13300
F4013       F  0.95825805  0.28330548  0.66818126    -0.13800
C4014       C  0.94250438  0.27168604  0.80710510     0.16000
C4015       C  0.94276907  0.27113716  0.84676425     0.25400
C4016       C  0.94539686  0.25333245  0.86579956    -0.40900
C4017       C  0.94819229  0.23635066  0.84417999     0.32400
C4018       C  0.94790133  0.23695556  0.80459842     0.14100
F4019       F  0.93951728  0.28882700  0.78939737    -0.13200
F4020       F  0.95114800  0.21903297  0.86132614    -0.13800
F4021       F  0.93991073  0.28775768  0.86637408    -0.16000
F4022       F  0.95059247  0.22037415  0.78457660    -0.14600
F4023       F  0.95918366  0.27993469  0.74431523    -0.14600
F4024       F  0.92940977  0.23299820  0.66400550    -0.16000
C4025       C  0.94223337  0.24296255  0.22130227     0.14000
C4026       C  0.93816405  0.25863572  0.24393306     0.01000
C4027       C  0.93373813  0.27561493  0.22607785     0.16000
C4028       C  0.93380402  0.27724045  0.18647494     0.25400
C4029       C  0.93815542  0.26177104  0.16382584    -0.40900
C4030       C  0.94214998  0.24443255  0.18173321     0.32400
C4031       C  0.93864954  0.25721349  0.28602087     0.01100
F4032       F  0.92931408  0.29065414  0.24698649    -0.13300
F4033       F  0.94659178  0.22928716  0.16112873    -0.13800
C4034       C  0.94369714  0.27232295  0.30797214     0.16000
C4035       C  0.94438711  0.27054384  0.34758201     0.25400
C4036       C  0.94035436  0.25334832  0.36579859    -0.40900
C4037       C  0.93524740  0.23833699  0.34369332     0.32400
C4038       C  0.93427477  0.24039253  0.30445564     0.14100
F4039       F  0.94820387  0.28861181  0.29100859    -0.13200
F4040       F  0.93078768  0.22184407  0.36015230    -0.13800
F4041       F  0.94920056  0.28543301  0.36794293    -0.16000
F4042       F  0.92881719  0.22603547  0.28450962    -0.14600
F4043       F  0.94676417  0.22649304  0.23753184    -0.14600
F4044       F  0.92964655  0.29403660  0.17033196    -0.16000
C4045       C  0.89240542  0.27603012  0.92942238     0.14000
C4046       C  0.88460274  0.26098855  0.93813753     0.01000
C4047       C  0.88815061  0.24441229  0.95922263     0.16000
C4048       C  0.89940612  0.24233081  0.96973384     0.25400
C4049       C  0.90737442  0.25692306  0.95976066    -0.40900
C4050       C  0.90371754  0.27406509  0.94028992     0.32400
C4051       C  0.87286647  0.26173993  0.92398002     0.01100
F4052       F  0.88068882  0.23001348  0.96917339    -0.13300
F4053       F  0.91118651  0.28834052  0.92981550    -0.13800
C4054       C  0.86884465  0.24630452  0.90078666     0.16000
C4055       C  0.85743072  0.24499806  0.89186509     0.25400
C4056       C  0.84978930  0.25926656  0.90556417    -0.40900
C4057       C  0.85392352  0.27546398  0.92680338     0.32400
C4058       C  0.86539557  0.27664844  0.93602794     0.14100
F4059       F  0.87595772  0.23204670  0.88782158    -0.13200
F4060       F  0.84676432  0.28929379  0.94107919    -0.13800
F4061       F  0.85379082  0.22937654  0.87071510    -0.16000
F4062       F  0.86907262  0.29161520  0.95873474    -0.14600
F4063       F  0.88918759  0.29211339  0.90882046    -0.14600
F4064       F  0.90253191  0.22586666  0.98941012    -0.16000
C4065       C  0.80263706  0.60904751  0.57331512     0.14000
C4066       C  0.81030195  0.62190384  0.55544018     0.01000
C4067       C  0.81888093  0.61399396  0.53285764     0.16000
C4068       C  0.81986502  0.59348923  0.52815410     0.25400
C4069       C  0.81216524  0.58037936  0.54572184    -0.40900
C4070       C  0.80350355  0.58842333  0.56835576     0.32400
C4071       C  0.81027953  0.64340190  0.56359138     0.01100
F4072       F  0.82655810  0.62618280  0.51626614    -0.13300
F4073       F  0.79579297  0.57643753  0.58529098    -0.13800
C4074       C  0.81446535  0.65000682  0.59848401     0.16000
C4075       C  0.81580230  0.67026758  0.60543085     0.25400
C4076       C  0.81286277  0.68446511  0.57758169    -0.40900
C4077       C  0.80835607  0.67779046  0.54283470     0.32400
C4078       C  0.80719206  0.65735087  0.53576718     0.14100
F4079       F  0.81764376  0.63670626  0.62545135    -0.13200
F4080       F  0.80542099  0.69094131  0.51532723    -0.13800
F4081       F  0.81998105  0.67591426  0.63966345    -0.16000
F4082       F  0.80321779  0.65113117  0.50163498    -0.14600
F4083       F  0.79433756  0.61651226  0.59560687    -0.14600
F4084       F  0.82850277  0.58654459  0.50670663    -0.16000
C4085       C  0.81813422  0.40708071  0.43303378     0.14000
C4086       C  0.81144107  0.39210509  0.44932367     0.01000
C4087       C  0.80414450  0.39701336  0.47916219     0.16000
C4088       C  0.80315581  0.41664866  0.49150602     0.25400
C4089       C  0.80962876  0.43193081  0.47469887    -0.40900
C4090       C  0.81726970  0.42680012  0.44560476     0.32400
C4091       C  0.81142557  0.37162569  0.43375927     0.01100
F4092       F  0.79791099  0.38268573  0.49641833    -0.13300
F4093       F  0.82383967  0.44081976  0.42890068    -0.13800
C4094       C  0.82134079  0.36025670  0.43226754     0.16000
C4095       C  0.82111485  0.34089298  0.41760866     0.25400
C4096       C  0.81097180  0.33263162  0.40420035    -0.40900
C4097       C  0.80109186  0.34408303  0.40555168     0.32400
C4098       C  0.80131888  0.36335551  0.42023350     0.14100
F4099       F  0.83120494  0.36781295  0.44536799    -0.13200
F4100       F  0.79114723  0.33651761  0.39316745    -0.13800
F4101       F  0.83086818  0.33044662  0.41544030    -0.16000
F4102       F  0.79165336  0.37410877  0.42075280    -0.14600
F4103       F  0.82526742  0.40272387  0.40411399    -0.14600
F4104       F  0.79576356  0.42056536  0.51990996    -0.16000
C4105       C  0.80558381  0.65627607  0.05134970     0.14000
C4106       C  0.81286228  0.64385568  0.07186769     0.01000
C4107       C  0.82056222  0.65215930  0.09735993     0.16000
C4108       C  0.82104661  0.67265928  0.10246029     0.25400
C4109       C  0.81376015  0.68539955  0.08205257    -0.40900
C4110       C  0.80603148  0.67693685  0.05629231     0.32400
C4111       C  0.81312828  0.62229601  0.06496685     0.01100
F4112       F  0.82765925  0.64030049  0.11738869    -0.13300
F4113       F  0.79889818  0.68855560  0.03595902    -0.13800
C4114       C  0.82236929  0.61409096  0.04601353     0.16000
C4115       C  0.82304137  0.59365211  0.04022378     0.25400
C4116       C  0.81438155  0.58094519  0.05307765    -0.40900
C4117       C  0.80516981  0.58924828  0.07271761     0.32400
C4118       C  0.80457803  0.60981728  0.07865518     0.14100
F4119       F  0.83073547  0.62599846  0.03278711    -0.13200
F4120       F  0.79660581  0.57760858  0.08530900    -0.13800
F4121       F  0.83220285  0.58639037  0.02184822    -0.16000
F4122       F  0.79572414  0.61756342  0.09797347    -0.14600
F4123       F  0.79820485  0.64839315  0.02604881    -0.14600
F4124       F  0.82870492  0.67989236  0.12755501    -0.16000
C4125       C  0.81753811  0.49444469  0.81036679     0.14000
C4126       C  0.81270116  0.50905844  0.78692344     0.01000
C4127       C  0.80730296  0.52539405  0.80386457     0.16000
C4128       C  0.80665669  0.52698122  0.84347257     0.25400
C4129       C  0.81126916  0.51210172  0.86701235    -0.40900
C4130       C  0.81673203  0.49582159  0.84993006     0.32400
C4131       C  0.81271584  0.50659870  0.74495305     0.01100
F4132       F  0.80242917  0.53962768  0.78202937    -0.13300
F4133       F  0.82171372  0.48159930  0.87151893    -0.13800
C4134       C  0.80801279  0.48943209  0.72877578     0.16000
C4135       C  0.80763079  0.48703059  0.68940517     0.25400
C4136       C  0.81183923  0.50194808  0.66487503    -0.40900
C4137       C  0.81665969  0.51912483  0.68128472     0.32400
C4138       C  0.81712081  0.52136488  0.72086864     0.14100
F4139       F  0.80341150  0.47515621  0.75122422    -0.13200
F4140       F  0.82093424  0.53384143  0.65917435    -0.13800
F4141       F  0.80282445  0.47019441  0.67557831    -0.16000
F4142       F  0.82195615  0.53793600  0.73568344    -0.14600
F4143       F  0.82326058  0.47898135  0.79486876    -0.14600
F4144       F  0.80136670  0.54297313  0.85876109    -0.16000
C4145       C  0.80896312  0.49426152  0.30754636     0.14000
C4146       C  0.80300251  0.50874873  0.28702301     0.01000
C4147       C  0.79730270  0.52381554  0.30676303     0.16000
C4148       C  0.79782296  0.52466356  0.34645412     0.25400
C4149       C  0.80413444  0.51050993  0.36701002    -0.40900
C4150       C  0.80955292  0.49513300  0.34708309     0.32400
C4151       C  0.80302911  0.50803353  0.24502035     0.01100
F4152       F  0.79125723  0.53770285  0.28761377    -0.13300
F4153       F  0.81600404  0.48158391  0.36559060    -0.13800
C4154       C  0.79900665  0.49105622  0.22643346     0.16000
C4155       C  0.80034187  0.48888603  0.18732302     0.25400
C4156       C  0.80568677  0.50384860  0.16550820    -0.40900
C4157       C  0.80926504  0.52134163  0.18419502     0.32400
C4158       C  0.80794445  0.52337093  0.22357848     0.14100
F4159       F  0.79383062  0.47638845  0.24641103    -0.13200
F4160       F  0.81411558  0.53647807  0.16461495    -0.13800
F4161       F  0.79639897  0.47193326  0.17113562    -0.16000
F4162       F  0.81180209  0.54005926  0.24096654    -0.14600
F4163       F  0.81464991  0.47968381  0.28906348    -0.14600
F4164       F  0.79222045  0.53941932  0.36473987    -0.16000
C4165       C  0.81539061  0.35881541  0.94834322     0.14000
C4166       C  0.81105929  0.37429206  0.92602982     0.01000
C4167       C  0.80687983  0.37009874  0.88970997     0.16000
C4168       C  0.80689463  0.35059820  0.87588645     0.25400
C4169       C  0.81114623  0.33486212  0.89822646    -0.40900
C4170       C  0.81542252  0.33925174  0.93467771     0.32400
C4171       C  0.81031894  0.39468003  0.94136986     0.01100
F4172       F  0.80276407  0.38496382  0.86762958    -0.13300
F4173       F  0.81939038  0.32459520  0.95755547    -0.13800
C4174       C  0.81956743  0.40760960  0.93952618     0.16000
C4175       C  0.81874923  0.42696770  0.95391821     0.25400
C4176       C  0.80866716  0.43364742  0.97080475    -0.40900
C4177       C  0.79941461  0.42050800  0.97255560     0.32400
C4178       C  0.80024429  0.40125537  0.95777701     0.14100
F4179       F  0.82940368  0.40144142  0.92389242    -0.13200
F4180       F  0.78950037  0.42630280  0.98815626    -0.13800
F4181       F  0.82793795  0.43895729  0.95225237    -0.16000
F4182       F  0.79121517  0.38890049  0.95965370    -0.14600
F4183       F  0.81941834  0.36264369  0.98366857    -0.14600
F4184       F  0.80285057  0.34723059  0.84041002    -0.16000
C4185       C  0.98695007  0.48801887  0.74729034     0.14000
C4186       C  0.99515187  0.50055736  0.76301348     0.01000
C4187       C  0.99269815  0.51079058  0.79695502     0.16000
C4188       C  0.98213964  0.50867175  0.81450759     0.25400
C4189       C  0.97392539  0.49609990  0.79859816    -0.40900
C4190       C  0.97649161  0.48579539  0.76479354     0.32400
C4191       C  0.00597960  0.50361718  0.74265076     0.01100
F4192       F  0.00053732  0.52282073  0.81308345    -0.13300
F4193       F  0.96862903  0.47431412  0.74733586    -0.13800
C4194       C  0.00908635  0.52268624  0.73037985     0.16000
C4195       C  0.01911232  0.52566977  0.71034673     0.25400
C4196       C  0.02631892  0.50954282  0.70174960    -0.40900
C4197       C  0.02301063  0.49030367  0.71345814     0.32400
C4198       C  0.01298178  0.48742819  0.73373770     0.14100
F4199       F  0.00232209  0.53851140  0.73752137    -0.13200
F4200       F  0.02966481  0.47428221  0.70677044    -0.13800
F4201       F  0.02180970  0.54454363  0.70008620    -0.16000
F4202       F  0.01025736  0.46883135  0.74566251    -0.14600
F4203       F  0.98888204  0.47856292  0.71386710    -0.14600
F4204       F  0.97998413  0.51878499  0.84704338    -0.16000
C4205       C  0.94183809  0.61154143  0.86089872     0.14000
C4206       C  0.94311140  0.61950900  0.82445650     0.01000
C4207       C  0.94513154  0.60674494  0.79353963     0.16000
C4208       C  0.94526701  0.58609115  0.79879067     0.25400
C4209       C  0.94310871  0.57810699  0.83485825    -0.40900
C4210       C  0.94183526  0.59100991  0.86608524     0.32400
C4211       C  0.94136802  0.64095406  0.81834975     0.01100
F4212       F  0.94654560  0.61431021  0.75812938    -0.13300
F4213       F  0.94020582  0.58367238  0.90160138    -0.13800
C4214       C  0.94890608  0.65498327  0.83330601     0.16000
C4215       C  0.94737642  0.67526325  0.82605860     0.25400
C4216       C  0.93822797  0.68176100  0.80378842    -0.40900
C4217       C  0.93025438  0.66762478  0.79125847     0.32400
C4218       C  0.93187746  0.64742834  0.79826694     0.14100
F4219       F  0.95795632  0.64895566  0.85381193    -0.13200
F4220       F  0.92093111  0.67323891  0.77168930    -0.13800
F4221       F  0.95511027  0.68836187  0.83948877    -0.16000
F4222       F  0.92417404  0.63411095  0.78533922    -0.14600
F4223       F  0.93990510  0.62361628  0.89109650    -0.14600
F4224       F  0.94673611  0.57396864  0.76839672    -0.16000
C4225       C  0.93479151  0.40436523  0.94627958     0.14000
C4226       C  0.94478405  0.39347632  0.94235784     0.01000
C4227       C  0.95428893  0.40248554  0.92626891     0.16000
C4228       C  0.95366973  0.42194505  0.91261241     0.25400
C4229       C  0.94353655  0.43274047  0.91526084    -0.40900
C4230       C  0.93417099  0.42392232  0.93300340     0.32400
C4231       C  0.94518201  0.37248747  0.95402283     0.01100
F4232       F  0.96407066  0.39221549  0.92285547    -0.13300
F4233       F  0.92426458  0.43385109  0.93584547    -0.13800
C4234       C  0.93982482  0.35791835  0.93200120     0.16000
C4235       C  0.94002231  0.33798238  0.94326363     0.25400
C4236       C  0.94561497  0.33231910  0.97691610    -0.40900
C4237       C  0.95104247  0.34714624  0.99872645     0.32400
C4238       C  0.95085201  0.36700323  0.98720808     0.14100
F4239       F  0.93445351  0.36305067  0.89941208    -0.13200
F4240       F  0.95635300  0.34261458  0.03174420    -0.13800
F4241       F  0.93472139  0.32432842  0.92118668    -0.16000
F4242       F  0.95602848  0.38099063  0.00886841    -0.14600
F4243       F  0.92559827  0.39590002  0.96250462    -0.14600
F4244       F  0.96297200  0.43018428  0.89663100    -0.16000
C4245       C  0.88563075  0.52411439  0.91848292     0.14000
C4246       C  0.88164642  0.50788286  0.93978950     0.01000
C4247       C  0.88916948  0.49258959  0.94951656     0.16000
C4248       C  0.90051756  0.49366759  0.93866964     0.25400
C4249       C  0.90459126  0.51021026  0.91822642    -0.40900
C4250       C  0.89696778  0.52536717  0.90810366     0.32400
C4251       C  0.86973561  0.50747352  0.95276728     0.01100
F4252       F  0.88564884  0.47706827  0.97111812    -0.13300
F4253       F  0.90049138  0.54158382  0.88840909    -0.13800
C4254       C  0.86245199  0.49184575  0.94243473     0.16000
C4255       C  0.85095206  0.49272734  0.95153467     0.25400
C4256       C  0.84657580  0.50935409  0.97075441    -0.40900
C4257       C  0.85398764  0.52442052  0.98272703     0.32400
C4258       C  0.86543975  0.52343204  0.97404188     0.14100
F4259       F  0.86634647  0.47630103  0.92168539    -0.13200
F4260       F  0.85007363  0.54037151  0.00231969    -0.13800
F4261       F  0.84399454  0.47803758  0.93928697    -0.16000
F4262       F  0.87233079  0.53832665  0.98581655    -0.14600
F4263       F  0.87851953  0.53891764  0.90791222    -0.14600
F4264       F  0.90763735  0.47907891  0.95015045    -0.16000
C4265       C  0.98977904  0.51931894  0.28243943     0.14000
C4266       C  0.99481517  0.50298114  0.26409090     0.01000
C4267       C  0.98976272  0.48416729  0.26797815     0.16000
C4268       C  0.97970360  0.48186819  0.28820259     0.25400
C4269       C  0.97414447  0.49846725  0.30418880    -0.40900
C4270       C  0.97955341  0.51714890  0.30203263     0.32400
C4271       C  0.00525209  0.50550914  0.24079785     0.01100
F4272       F  0.99425824  0.46801249  0.25055373    -0.13300
F4273       F  0.97478907  0.53356731  0.31761153    -0.13800
C4274       C  0.01460834  0.49304744  0.24662176     0.16000
C4275       C  0.02440248  0.49542602  0.22507453     0.25400
C4276       C  0.02529153  0.51082275  0.19813702    -0.40900
C4277       C  0.01597353  0.52327866  0.19206119     0.32400
C4278       C  0.00596039  0.52035196  0.21253876     0.14100
F4279       F  0.01449867  0.47909406  0.27448095    -0.13200
F4280       F  0.01657193  0.53828238  0.16635017    -0.13800
F4281       F  0.03334471  0.48347357  0.23254420    -0.16000
F4282       F  0.99693399  0.53199441  0.20461971    -0.14600
F4283       F  0.99471212  0.53752619  0.28110621    -0.14600
F4284       F  0.97522472  0.46332942  0.29072625    -0.16000
C4285       C  0.93965716  0.61643631  0.35531099     0.14000
C4286       C  0.94703051  0.62282633  0.32665470     0.01000
C4287       C  0.95305703  0.60836637  0.30597195     0.16000
C4288       C  0.95125631  0.58796907  0.31238885     0.25400
C4289       C  0.94355326  0.58157866  0.34026489    -0.40900
C4290       C  0.93807642  0.59619967  0.36244074     0.32400
C4291       C  0.94745836  0.64431917  0.31603208     0.01100
F4292       F  0.96061983  0.61400722  0.27916228    -0.13300
F4293       F  0.93098141  0.59105215  0.39102625    -0.13800
C4294       C  0.94886169  0.65936063  0.34364659     0.16000
C4295       C  0.94758714  0.67950777  0.33390754     0.25400
C4296       C  0.94492248  0.68492754  0.29640211    -0.40900
C4297       C  0.94423325  0.66999493  0.26855346     0.32400
C4298       C  0.94536651  0.64997992  0.27825720     0.14100
F4299       F  0.95123973  0.65454093  0.38021086    -0.13200
F4300       F  0.94231116  0.67478590  0.23166244    -0.13800
F4301       F  0.94842974  0.69356610  0.36142418    -0.16000
F4302       F  0.94377623  0.63607597  0.25084525    -0.14600
F4303       F  0.93349235  0.62977037  0.37541770    -0.14600
F4304       F  0.95690925  0.57457443  0.29081426    -0.16000
C4305       C  0.94117841  0.51484293  0.65930139     0.14000
C4306       C  0.93594466  0.49967810  0.63829441     0.01000
C4307       C  0.93108535  0.48354416  0.65752394     0.16000
C4308       C  0.93151469  0.48251905  0.69720632     0.25400
C4309       C  0.93681038  0.49769562  0.71847740    -0.40900
C4310       C  0.94162292  0.51389507  0.69890740     0.32400
C4311       C  0.93551842  0.50103975  0.59635028     0.01100
F4312       F  0.92579525  0.46889107  0.63787612    -0.13300
F4313       F  0.94718538  0.52848452  0.71785911    -0.13800
C4314       C  0.94081634  0.48674296  0.57337673     0.16000
C4315       C  0.94125928  0.48924628  0.53386672     0.25400
C4316       C  0.93641503  0.50615495  0.51674058    -0.40900
C4317       C  0.93064673  0.51990359  0.53993869     0.32400
C4318       C  0.93023961  0.51736194  0.57920342     0.14100
F4319       F  0.94589143  0.47070716  0.58932362    -0.13200
F4320       F  0.92520876  0.53576515  0.52469109    -0.13800
F4321       F  0.94669195  0.47541539  0.51263292    -0.16000
F4322       F  0.92464215  0.53090498  0.60064908    -0.14600
F4323       F  0.94614916  0.53038786  0.64125802    -0.14600
F4324       F  0.92670100  0.46665980  0.71471512    -0.16000
C4325       C  0.93135388  0.49215802  0.15628969     0.14000
C4326       C  0.93746547  0.50729981  0.13830140     0.01000
C4327       C  0.94307223  0.52162021  0.16033031     0.16000
C4328       C  0.94291163  0.52043777  0.19993486     0.25400
C4329       C  0.93712198  0.50485901  0.21814328    -0.40900
C4330       C  0.93114443  0.49095686  0.19586702     0.32400
C4331       C  0.93795431  0.50834184  0.09651128     0.01100
F4332       F  0.94906869  0.53633586  0.14334713    -0.13300
F4333       F  0.92514873  0.47608089  0.21237265    -0.13800
C4334       C  0.93329908  0.52470970  0.07771524     0.16000
C4335       C  0.93396923  0.52620823  0.03833570     0.25400
C4336       C  0.93939452  0.51130427  0.01673869    -0.40900
C4337       C  0.94394105  0.49471443  0.03577915     0.32400
C4338       C  0.94320951  0.49326695  0.07537325     0.14100
F4339       F  0.92788585  0.53912322  0.09758221    -0.13200
F4340       F  0.94920143  0.48000843  0.01626970    -0.13800
F4341       F  0.92897199  0.54206635  0.02144366    -0.16000
F4342       F  0.94779871  0.47731266  0.09319628    -0.14600
F4343       F  0.92559125  0.47853449  0.13547106    -0.14600
F4344       F  0.94893393  0.53389758  0.22027649    -0.16000
C4345       C  0.94362604  0.39630764  0.39741822     0.14000
C4346       C  0.93862869  0.39211506  0.43263243     0.01000
C4347       C  0.93407758  0.40784324  0.45399266     0.16000
C4348       C  0.93446812  0.42739271  0.44031506     0.25400
C4349       C  0.93940014  0.43164217  0.40482386    -0.40900
C4350       C  0.94399422  0.41580173  0.38358965     0.32400
C4351       C  0.93863328  0.37147987  0.44774370     0.01100
F4352       F  0.92918535  0.40425280  0.48814187    -0.13300
F4353       F  0.94879083  0.41905397  0.34916185    -0.13800
C4354       C  0.94380286  0.36738568  0.48266158     0.16000
C4355       C  0.94424134  0.34796389  0.49659692     0.25400
C4356       C  0.93963823  0.33195581  0.47564397    -0.40900
C4357       C  0.93426651  0.33615815  0.44086362     0.32400
C4358       C  0.93379003  0.35572941  0.42707287     0.14100
F4359       F  0.94874580  0.38218896  0.50294121    -0.13200
F4360       F  0.92963588  0.32135783  0.41980368    -0.13800
F4361       F  0.94920935  0.34496401  0.53084779    -0.16000
F4362       F  0.92855943  0.35932688  0.39350153    -0.14600
F4363       F  0.94841766  0.38153485  0.37673139    -0.14600
F4364       F  0.93016901  0.44216157  0.46220602    -0.16000
C4365       C  0.88434041  0.52864747  0.40949015     0.14000
C4366       C  0.87916366  0.51088116  0.42144798     0.01000
C4367       C  0.88590186  0.49379245  0.42568311     0.16000
C4368       C  0.89758488  0.49465059  0.41970126     0.25400
C4369       C  0.90281709  0.51258022  0.40862708    -0.40900
C4370       C  0.89595368  0.52945218  0.40283015     0.32400
C4371       C  0.86686300  0.51047357  0.43072377     0.01100
F4372       F  0.88117256  0.47619468  0.43582834    -0.13300
F4373       F  0.90047758  0.54698567  0.39123163    -0.13800
C4374       C  0.85886452  0.51800130  0.40493793     0.16000
C4375       C  0.84745292  0.51905569  0.41485125     0.25400
C4376       C  0.84367830  0.51201142  0.45030161    -0.40900
C4377       C  0.85156949  0.50380507  0.47555129     0.32400
C4378       C  0.86305789  0.50334467  0.46614692     0.14100
F4379       F  0.86208448  0.52427139  0.36993692    -0.13200
F4380       F  0.84823650  0.49713238  0.51013431    -0.13800
F4381       F  0.84003553  0.52676808  0.38947477    -0.16000
F4382       F  0.87052590  0.49670881  0.49240697    -0.14600
F4383       F  0.87822642  0.54557754  0.40565715    -0.14600
F4384       F  0.90379604  0.47806770  0.42625089    -0.16000
C4385       C  0.51148774  0.26337806  0.91882692     0.14000
C4386       C  0.50907147  0.25495217  0.88322104     0.01000
C4387       C  0.51705161  0.24282269  0.86546972     0.16000
C4388       C  0.52730792  0.23897250  0.88301870     0.25400
C4389       C  0.52983811  0.24733860  0.91868049    -0.40900
C4390       C  0.52187337  0.25971022  0.93640207     0.32400
C4391       C  0.49806114  0.25787683  0.86489665     0.01100
F4392       F  0.51494907  0.23494682  0.83067966    -0.13300
F4393       F  0.52407619  0.26795506  0.97079008    -0.13800
C4394       C  0.49498658  0.27645640  0.85010881     0.16000
C4395       C  0.48457543  0.27885646  0.83210656     0.25400
C4396       C  0.47706873  0.26266696  0.82885562    -0.40900
C4397       C  0.48039733  0.24392781  0.84289572     0.32400
C4398       C  0.49078925  0.24161377  0.86069620     0.14100
F4399       F  0.50210337  0.29220056  0.85288629    -0.13200
F4400       F  0.47339981  0.22797479  0.84119746    -0.13800
F4401       F  0.48183300  0.29702213  0.81805113    -0.16000
F4402       F  0.49366712  0.22352605  0.87482294    -0.14600
F4403       F  0.50372548  0.27483414  0.93671327    -0.14600
F4404       F  0.53498674  0.22773343  0.86420550    -0.16000
C4405       C  0.48896582  0.24008896  0.36566469     0.14000
C4406       C  0.49804307  0.25300927  0.35910389     0.01000
C4407       C  0.49701465  0.26777610  0.33104788     0.16000
C4408       C  0.48691146  0.27004266  0.31088132     0.25400
C4409       C  0.47768246  0.25739032  0.31810790    -0.40900
C4410       C  0.47895638  0.24209573  0.34523980     0.32400
C4411       C  0.50864483  0.25059552  0.38095321     0.01100
F4412       F  0.50580503  0.28001757  0.32320288    -0.13300
F4413       F  0.47026142  0.22981169  0.35406001    -0.13800
C4414       C  0.51439471  0.23242104  0.37981529     0.16000
C4415       C  0.52446325  0.22989512  0.39964642     0.25400
C4416       C  0.52917636  0.24566232  0.42101158    -0.40900
C4417       C  0.52323335  0.26382989  0.42269576     0.32400
C4418       C  0.51305264  0.26620722  0.40298376     0.14100
F4419       F  0.51047683  0.21724832  0.35805000    -0.13200
F4420       F  0.52736794  0.27951127  0.44259038    -0.13800
F4421       F  0.52983665  0.21218545  0.39606544    -0.16000
F4422       F  0.50750790  0.28380844  0.40531796    -0.14600
F4423       F  0.48962723  0.22595971  0.39312647    -0.14600
F4424       F  0.48610730  0.28483068  0.28477919    -0.16000
C4425       C  0.57130897  0.24010395  0.77389354     0.14000
C4426       C  0.56455733  0.25485482  0.75728414     0.01000
C4427       C  0.55823396  0.26751883  0.78063392     0.16000
C4428       C  0.55856953  0.26537435  0.82011149     0.25400
C4429       C  0.56533245  0.25059242  0.83696254    -0.40900
C4430       C  0.57166889  0.23792348  0.81339958     0.32400
C4431       C  0.56407488  0.25702738  0.71555518     0.01100
F4432       F  0.55145833  0.28157680  0.76505565    -0.13300
F4433       F  0.57823938  0.22346207  0.82860075    -0.13800
C4434       C  0.55916131  0.24214720  0.69301571     0.16000
C4435       C  0.55877203  0.24417064  0.65347153     0.25400
C4436       C  0.56339543  0.26108622  0.63572829    -0.40900
C4437       C  0.56825087  0.27606375  0.65869343     0.32400
C4438       C  0.56853258  0.27404014  0.69816327     0.14100
F4439       F  0.55463030  0.22572537  0.70942583    -0.13200
F4440       F  0.57309628  0.29243095  0.64304904    -0.13800
F4441       F  0.55376094  0.22966395  0.63265733    -0.16000
F4442       F  0.57344057  0.28848949  0.71944434    -0.14600
F4443       F  0.57761014  0.22789981  0.75177331    -0.14600
F4444       F  0.55181967  0.27708642  0.84171185    -0.16000
C4445       C  0.56925378  0.26512079  0.27884213     0.14000
C4446       C  0.56332398  0.25096238  0.25725209     0.01000
C4447       C  0.55775475  0.23534844  0.27579057     0.16000
C4448       C  0.55817900  0.23374835  0.31525854     0.25400
C4449       C  0.56420469  0.24777178  0.33703212    -0.40900
C4450       C  0.56965194  0.26359000  0.31848936     0.32400
C4451       C  0.56286983  0.25243106  0.21538896     0.01100
F4452       F  0.55163711  0.22192785  0.25564832    -0.13300
F4453       F  0.57550628  0.27734202  0.33866238    -0.13800
C4454       C  0.56722228  0.23705812  0.19271817     0.16000
C4455       C  0.56695414  0.23855041  0.15313111     0.25400
C4456       C  0.56228646  0.25542837  0.13558919    -0.40900
C4457       C  0.55768850  0.27057801  0.15835760     0.32400
C4458       C  0.55799604  0.26909531  0.19792208     0.14100
F4459       F  0.57209317  0.22090953  0.20899610    -0.13200
F4460       F  0.55285584  0.28681124  0.14225536    -0.13800
F4461       F  0.57182045  0.22401797  0.13205525    -0.16000
F4462       F  0.55346559  0.28387602  0.21923808    -0.14600
F4463       F  0.57478556  0.28026030  0.26144272    -0.14600
F4464       F  0.55228818  0.21889941  0.33228806    -0.16000
C4465       C  0.74489751  0.26755463  0.70362967     0.14000
C4466       C  0.74965786  0.25269388  0.72672424     0.01000
C4467       C  0.74399442  0.23447338  0.73048112     0.16000
C4468       C  0.73359810  0.23136734  0.71290745     0.25400
C4469       C  0.72842912  0.24659614  0.69141374    -0.40900
C4470       C  0.73437103  0.26460738  0.68632502     0.32400
C4471       C  0.76028757  0.25615484  0.74818096     0.01100
F4472       F  0.74825710  0.21992123  0.75301359    -0.13300
F4473       F  0.72991209  0.27959512  0.66534487    -0.13800
C4474       C  0.76127284  0.27218228  0.77370944     0.16000
C4475       C  0.77113341  0.27484259  0.79507250     0.25400
C4476       C  0.78006601  0.26120486  0.79214577    -0.40900
C4477       C  0.77895140  0.24495676  0.76718297     0.32400
C4478       C  0.76928270  0.24269804  0.74494425     0.14100
F4479       F  0.75263947  0.28516874  0.77824721    -0.13200
F4480       F  0.78752592  0.23185978  0.76250549    -0.13800
F4481       F  0.77196800  0.29077029  0.81858080    -0.16000
F4482       F  0.76884939  0.22765228  0.71927276    -0.14600
F4483       F  0.75039725  0.28502381  0.69809298    -0.14600
F4484       F  0.72834121  0.21372340  0.71906434    -0.16000
C4485       C  0.61636050  0.27678542  0.56277247     0.14000
C4486       C  0.62230522  0.25935727  0.55409696     0.01000
C4487       C  0.61654379  0.24336920  0.53724806     0.16000
C4488       C  0.60501236  0.24491038  0.52886042     0.25400
C4489       C  0.59904368  0.26254174  0.53714553    -0.40900
C4490       C  0.60491935  0.27841822  0.55441132     0.32400
C4491       C  0.63462594  0.25867635  0.56101989     0.01100
F4492       F  0.62214523  0.22646647  0.52802548    -0.13300
F4493       F  0.59958496  0.29552163  0.56415085    -0.13800
C4494       C  0.63941031  0.24522006  0.58703060     0.16000
C4495       C  0.65095049  0.24624965  0.59582193     0.25400
C4496       C  0.65780463  0.26094677  0.57905008    -0.40900
C4497       C  0.65300724  0.27381128  0.55193577     0.32400
C4498       C  0.64158781  0.27266318  0.54306527     0.14100
F4499       F  0.63283779  0.23159977  0.60488333    -0.13200
F4500       F  0.65944406  0.28733289  0.53322851    -0.13800
F4501       F  0.65531694  0.23334748  0.62153708    -0.16000
F4502       F  0.63727322  0.28535284  0.51684109    -0.14600
F4503       F  0.62167144  0.29230718  0.57977671    -0.14600
F4504       F  0.59976756  0.22925906  0.51210527    -0.16000
C4505       C  0.74421268  0.25969006  0.20266680     0.14000
C4506       C  0.74622759  0.25294941  0.23990117     0.01000
C4507       C  0.73762261  0.24296737  0.25944096     0.16000
C4508       C  0.72714664  0.23995412  0.24234131     0.25400
C4509       C  0.72502719  0.24693605  0.20529084    -0.40900
C4510       C  0.73366361  0.25682074  0.18556332     0.32400
C4511       C  0.75721350  0.25655472  0.25877289     0.01100
F4512       F  0.73925255  0.23670820  0.29567979    -0.13300
F4513       F  0.73193417  0.26345258  0.14963466    -0.13800
C4514       C  0.76097311  0.27602496  0.26548123     0.16000
C4515       C  0.77137036  0.27947251  0.28307647     0.25400
C4516       C  0.77832532  0.26341725  0.29419609    -0.40900
C4517       C  0.77430553  0.24386524  0.28824983     0.32400
C4518       C  0.76388160  0.24053396  0.27081534     0.14100
F4519       F  0.75452489  0.29176882  0.25504662    -0.13200
F4520       F  0.78057592  0.22781016  0.29812180    -0.13800
F4521       F  0.77466159  0.29860934  0.28842701    -0.16000
F4522       F  0.76044307  0.22155163  0.26457724    -0.14600
F4523       F  0.75250611  0.26888807  0.18279443    -0.14600
F4524       F  0.71887840  0.23102297  0.26281761    -0.16000
C4525       C  0.69918886  0.24011460  0.92664227     0.14000
C4526       C  0.69284227  0.25316919  0.90387167     0.01000
C4527       C  0.68613964  0.26764475  0.92136813     0.16000
C4528       C  0.68596755  0.26946414  0.96072832     0.25400
C4529       C  0.69238969  0.25657682  0.98383082    -0.40900
C4530       C  0.69887672  0.24165750  0.96630960     0.32400
C4531       C  0.69294605  0.25162338  0.86190712     0.01100
F4532       F  0.67951361  0.27983647  0.90027548    -0.13300
F4533       F  0.70508047  0.22879799  0.98739111    -0.13800
C4534       C  0.69009466  0.23366018  0.84412076     0.16000
C4535       C  0.68977569  0.23235012  0.80457708     0.25400
C4536       C  0.69232603  0.24905020  0.78174065    -0.40900
C4537       C  0.69502465  0.26715615  0.79978661     0.32400
C4538       C  0.69538377  0.26836814  0.83941007     0.14100
F4539       F  0.68738596  0.21739723  0.86508770    -0.13200
F4540       F  0.69764273  0.28361595  0.77927289    -0.13800
F4541       F  0.68688664  0.21464036  0.78881497    -0.16000
F4542       F  0.69834406  0.28587178  0.85586665    -0.14600
F4543       F  0.70585917  0.22610331  0.91045967    -0.14600
F4544       F  0.67925265  0.28367712  0.97608577    -0.16000
C4545       C  0.69537702  0.26658685  0.33922920     0.14000
C4546       C  0.68898589  0.25342363  0.36136218     0.01000
C4547       C  0.68189239  0.23959977  0.34350345     0.16000
C4548       C  0.68138144  0.23869578  0.30383509     0.25400
C4549       C  0.68795546  0.25167754  0.28149079    -0.40900
C4550       C  0.69486299  0.26578472  0.29970004     0.32400
C4551       C  0.68961396  0.25467999  0.40311459     0.01100
F4552       F  0.67545823  0.22703603  0.36449278    -0.13300
F4553       F  0.70164624  0.27806294  0.27935155    -0.13800
C4554       C  0.68586694  0.27193322  0.42131592     0.16000
C4555       C  0.68697358  0.27398369  0.46047702     0.25400
C4556       C  0.69195541  0.25876277  0.48248567    -0.40900
C4557       C  0.69568240  0.24136684  0.46404612     0.32400
C4558       C  0.69446078  0.23932655  0.42464303     0.14100
F4559       F  0.68099888  0.28679656  0.40102284    -0.13200
F4560       F  0.70067324  0.22649560  0.48392850    -0.13800
F4561       F  0.68286232  0.29077227  0.47677912    -0.16000
F4562       F  0.69823094  0.22257008  0.40735576    -0.14600
F4563       F  0.70243083  0.27982133  0.35605187    -0.14600
F4564       F  0.67452460  0.22504085  0.28730719    -0.16000
C4565       C  0.64183355  0.24166298  0.05020280     0.14000
C4566       C  0.63411473  0.25568709  0.06409822     0.01000
C4567       C  0.63795047  0.27074511  0.08854892     0.16000
C4568       C  0.64935049  0.27214308  0.09814688     0.25400
C4569       C  0.65720444  0.25850175  0.08341480    -0.40900
C4570       C  0.65328307  0.24305682  0.05967538     0.32400
C4571       C  0.62215144  0.25538931  0.05189839     0.01100
F4572       F  0.63062050  0.28426816  0.10290908    -0.13300
F4573       F  0.66059714  0.22994847  0.04388484    -0.13800
C4574       C  0.61494940  0.23969357  0.06221286     0.16000
C4575       C  0.60341659  0.24056123  0.05360147     0.25400
C4576       C  0.59891776  0.25716792  0.03442764    -0.40900
C4577       C  0.60629948  0.27237036  0.02258492     0.32400
C4578       C  0.61776353  0.27149305  0.03131446     0.14100
F4579       F  0.61898782  0.22400777  0.08227592    -0.13200
F4580       F  0.60239641  0.28828627  0.00285061    -0.13800
F4581       F  0.59657853  0.22573293  0.06599840    -0.16000
F4582       F  0.62459945  0.28658365  0.02010124    -0.14600
F4583       F  0.63836150  0.22716630  0.02605427    -0.14600
F4584       F  0.65270756  0.28696959  0.12174280    -0.16000
C4585       C  0.50622301  0.02724091  0.71715059     0.14000
C4586       C  0.50268316  0.00893559  0.73205227     0.01000
C4587       C  0.50982850  0.99238882  0.72924796     0.16000
C4588       C  0.52051421  0.99421433  0.71299971     0.25400
C4589       C  0.52437024  0.01280194  0.69954132    -0.40900
C4590       C  0.51692434  0.02917036  0.70087579     0.32400
C4591       C  0.49141502  0.00673366  0.74954907     0.01100
F4592       F  0.50660153  0.97454194  0.74368472    -0.13300
F4593       F  0.52004681  0.04721249  0.68712892    -0.13800
C4594       C  0.48360031  0.99369166  0.73320017     0.16000
C4595       C  0.47318830  0.99044732  0.75034888     0.25400
C4596       C  0.47033924  0.00011128  0.78457057    -0.40900
C4597       C  0.47797386  0.01396757  0.80004061     0.32400
C4598       C  0.48848217  0.01712809  0.78278247     0.14100
F4599       F  0.48599634  0.98434106  0.70001269    -0.13200
F4600       F  0.47532546  0.02430722  0.83190070    -0.13800
F4601       F  0.46568332  0.97845637  0.73236975    -0.16000
F4602       F  0.49586819  0.03004998  0.79883944    -0.14600
F4603       F  0.49931111  0.04328900  0.71846621    -0.14600
F4604       F  0.52724846  0.97791551  0.71233730    -0.16000
C4605       C  0.55680731  0.11875299  0.61244328     0.14000
C4606       C  0.56293148  0.12229738  0.57916581     0.01000
C4607       C  0.56842127  0.10644687  0.56114487     0.16000
C4608       C  0.56771019  0.08716677  0.57607938     0.25400
C4609       C  0.56145545  0.08341513  0.60944113    -0.40900
C4610       C  0.55609984  0.09958461  0.62759530     0.32400
C4611       C  0.56313301  0.14248161  0.56263431     0.01100
F4612       F  0.57427944  0.10959198  0.52861082    -0.13300
F4613       F  0.55019233  0.09700104  0.66021277    -0.13800
C4614       C  0.57252685  0.15491407  0.56733625     0.16000
C4615       C  0.57240977  0.17439404  0.55304994     0.25400
C4616       C  0.56290996  0.18161172  0.53339885    -0.40900
C4617       C  0.55353523  0.16893086  0.52873314     0.32400
C4618       C  0.55364961  0.14962944  0.54336840     0.14100
F4619       F  0.58176063  0.14820163  0.58606124    -0.13200
F4620       F  0.54413414  0.17526742  0.51046237    -0.13800
F4621       F  0.58167219  0.18597699  0.55769806    -0.16000
F4622       F  0.54447014  0.13783096  0.53870185    -0.14600
F4623       F  0.55148547  0.13396699  0.63029666    -0.14600
F4624       F  0.57302604  0.07220224  0.55747318    -0.16000
C4625       C  0.48672360  0.98373509  0.24807120     0.14000
C4626       C  0.49313821  0.00075826  0.25578583     0.01000
C4627       C  0.48872259  0.01544613  0.27997516     0.16000
C4628       C  0.47793307  0.01332880  0.29555325     0.25400
C4629       C  0.47137580  0.99638981  0.28732906    -0.40900
C4630       C  0.47596726  0.98158193  0.26343045     0.32400
C4631       C  0.50431944  0.00332627  0.23783420     0.01100
F4632       F  0.49490027  0.03182894  0.28863053    -0.13300
F4633       F  0.46986741  0.96535281  0.25320946    -0.13800
C4634       C  0.50649863  0.01990474  0.21466952     0.16000
C4635       C  0.51716408  0.02271406  0.19875182     0.25400
C4636       C  0.52582794  0.00890985  0.20557176    -0.40900
C4637       C  0.52347914  0.99186673  0.22745814     0.32400
C4638       C  0.51283193  0.98913877  0.24348477     0.14100
F4639       F  0.49827203  0.03338412  0.20745623    -0.13200
F4640       F  0.53167879  0.97843334  0.23539696    -0.13800
F4641       F  0.51904575  0.03901755  0.17689828    -0.16000
F4642       F  0.51097628  0.97302236  0.26586383    -0.14600
F4643       F  0.49071525  0.96946594  0.22436358    -0.14600
F4644       F  0.47392266  0.02788793  0.31853699    -0.16000
C4645       C  0.55433699  0.98780394  0.85275788     0.14000
C4646       C  0.55735418  0.00354908  0.87704430     0.01000
C4647       C  0.56114486  0.02150046  0.86121879     0.16000
C4648       C  0.56175795  0.02384814  0.82190548     0.25400
C4649       C  0.55867594  0.00820575  0.79738638    -0.40900
C4650       C  0.55499706  0.99009282  0.81324717     0.32400
C4651       C  0.55704959  0.00118869  0.91889989     0.01100
F4652       F  0.56449441  0.03670238  0.88395301    -0.13300
F4653       F  0.55162008  0.97487824  0.79059485    -0.13800
C4654       C  0.56349675  0.98632277  0.93637703     0.16000
C4655       C  0.56410508  0.98513394  0.97588115     0.25400
C4656       C  0.55839254  0.99901572  0.99894672    -0.40900
C4657       C  0.55173118  0.01367389  0.98139325     0.32400
C4658       C  0.55098439  0.01461069  0.94171735     0.14100
F4659       F  0.56966135  0.97347227  0.91515918    -0.13200
F4660       F  0.54589364  0.02701780  0.00253774    -0.13800
F4661       F  0.57075728  0.97088004  0.99143266    -0.16000
F4662       F  0.54436723  0.02869539  0.92548086    -0.14600
F4663       F  0.55051353  0.97036238  0.86731676    -0.14600
F4664       F  0.56552670  0.04143830  0.80784677    -0.16000
C4665       C  0.56427408  0.99662458  0.35531373     0.14000
C4666       C  0.56005470  0.01243095  0.37709653     0.01000
C4667       C  0.55637840  0.02974791  0.35894345     0.16000
C4668       C  0.55690545  0.03138091  0.31951623     0.25400
C4669       C  0.56117668  0.01560870  0.29716206    -0.40900
C4670       C  0.56488794  0.99819944  0.31570240     0.32400
C4671       C  0.55957712  0.01111519  0.41888889     0.01100
F4672       F  0.55197656  0.04495168  0.37950110    -0.13300
F4673       F  0.56911957  0.98267525  0.29566064    -0.13800
C4674       C  0.56622970  0.02384083  0.44121050     0.16000
C4675       C  0.56587543  0.02260709  0.48081431     0.25400
C4676       C  0.55889809  0.00851112  0.49860013    -0.40900
C4677       C  0.55205474  0.99609394  0.47617584     0.32400
C4678       C  0.55236571  0.99743806  0.43661040     0.14100
F4679       F  0.57335861  0.03698647  0.42450946    -0.13200
F4680       F  0.54509751  0.98258702  0.49266636    -0.13800
F4681       F  0.57282943  0.03436360  0.50163722    -0.16000
F4682       F  0.54561110  0.98543580  0.41556961    -0.14600
F4683       F  0.56788919  0.97971969  0.37248954    -0.14600
F4684       F  0.55285853  0.04826977  0.30340483    -0.16000
C4685       C  0.55968825  0.15731133  0.08301548     0.14000
C4686       C  0.55832577  0.14081558  0.05893569     0.01000
C4687       C  0.55763597  0.14378474  0.01958626     0.16000
C4688       C  0.55847465  0.16288100  0.00435898     0.25400
C4689       C  0.56006101  0.17943674  0.02821936    -0.40900
C4690       C  0.56058963  0.17649860  0.06775871     0.32400
C4691       C  0.55794286  0.12037105  0.07433829     0.01100
F4692       F  0.55611325  0.12810082  0.99584865    -0.13300
F4693       F  0.56172261  0.19220120  0.09164185    -0.13800
C4694       C  0.54923931  0.11441491  0.09872634     0.16000
C4695       C  0.54873195  0.09481592  0.11200041     0.25400
C4696       C  0.55698454  0.08079741  0.10114234    -0.40900
C4697       C  0.56568219  0.08693567  0.07658973     0.32400
C4698       C  0.56614844  0.10650600  0.06344846     0.14100
F4699       F  0.54110289  0.12749672  0.10910034    -0.13200
F4700       F  0.57392204  0.07416320  0.06580411    -0.13800
F4701       F  0.54009075  0.08961359  0.13520229    -0.16000
F4702       F  0.57475810  0.11205229  0.04042023    -0.14600
F4703       F  0.56034787  0.15478502  0.12119641    -0.14600
F4704       F  0.55801401  0.16510155  0.96607906    -0.16000
C4705       C  0.73985529  0.99976204  0.91109049     0.14000
C4706       C  0.74252225  0.00918772  0.87658311     0.01000
C4707       C  0.73444325  0.02123729  0.85893412     0.16000
C4708       C  0.72392427  0.02412242  0.87570304     0.25400
C4709       C  0.72123862  0.01491543  0.91055500    -0.40900
C4710       C  0.72927455  0.00251940  0.92786178     0.32400
C4711       C  0.75372604  0.00660522  0.85885910     0.01100
F4712       F  0.73665819  0.02981016  0.82482682    -0.13300
F4713       F  0.72694698  0.99328823  0.96122419    -0.13800
C4714       C  0.75735959  0.98774166  0.84721524     0.16000
C4715       C  0.76797119  0.98531297  0.83072646     0.25400
C4716       C  0.77527016  0.00175344  0.82588472    -0.40900
C4717       C  0.77143755  0.02075473  0.83685228     0.32400
C4718       C  0.76077914  0.02310698  0.85312998     0.14100
F4719       F  0.75061018  0.97161219  0.85183256    -0.13200
F4720       F  0.77815985  0.03700039  0.83355443    -0.13800
F4721       F  0.77112616  0.96672406  0.82009950    -0.16000
F4722       F  0.75749086  0.04146315  0.86468474    -0.14600
F4723       F  0.74756292  0.98810993  0.92879886    -0.14600
F4724       F  0.71619813  0.03528557  0.85691139    -0.16000
C4725       C  0.70391342  0.14817495  0.08948938     0.14000
C4726       C  0.69446060  0.14037019  0.07083358     0.01000
C4727       C  0.68513353  0.15263870  0.06407846     0.16000
C4728       C  0.68519636  0.17248691  0.07597872     0.25400
C4729       C  0.69459875  0.18038755  0.09511204    -0.40900
C4730       C  0.70398343  0.16800968  0.10168101     0.32400
C4731       C  0.69446070  0.11973621  0.05645513     0.01100
F4732       F  0.67594796  0.14532582  0.04587122    -0.13300
F4733       F  0.71332078  0.17520183  0.11920144    -0.13800
C4734       C  0.69031162  0.10405955  0.07872716     0.16000
C4735       C  0.68952425  0.08479350  0.06368291     0.25400
C4736       C  0.69286398  0.08092139  0.02592061    -0.40900
C4737       C  0.69723696  0.09678748  0.00408827     0.32400
C4738       C  0.69803069  0.11593145  0.01930852     0.14100
F4739       F  0.68687092  0.10749852  0.11487759    -0.13200
F4740       F  0.70046543  0.09402436  0.96750498    -0.13800
F4741       F  0.68546966  0.07001342  0.08611509    -0.16000
F4742       F  0.70208357  0.13094953  0.99744465    -0.14600
F4743       F  0.71310077  0.13661598  0.09557719    -0.14600
F4744       F  0.67592425  0.18380033  0.06969115    -0.16000
C4745       C  0.61528808  0.99413617  0.09419541     0.14000
C4746       C  0.61877287  0.00995162  0.07093413     0.01000
C4747       C  0.61096543  0.02486687  0.06141138     0.16000
C4748       C  0.59969774  0.02334811  0.07333358     0.25400
C4749       C  0.59607314  0.00673948  0.09452466    -0.40900
C4750       C  0.60408030  0.99245726  0.10561554     0.32400
C4751       C  0.63035273  0.00975170  0.05492444     0.01100
F4752       F  0.61408780  0.04025417  0.03878564    -0.13300
F4753       F  0.60099959  0.97652374  0.12692508    -0.13800
C4754       C  0.63383393  0.99347568  0.03287508     0.16000
C4755       C  0.64507729  0.99144369  0.02190783     0.25400
C4756       C  0.65316304  0.00575122  0.03255620    -0.40900
C4757       C  0.64950561  0.02275569  0.05265753     0.32400
C4758       C  0.63820217  0.02468757  0.06378691     0.14100
F4759       F  0.62632981  0.97918810  0.02271608    -0.13200
F4760       F  0.65695228  0.03699271  0.06350587    -0.13800
F4761       F  0.64805928  0.97518417  0.00141871    -0.16000
F4762       F  0.63506721  0.04059258  0.08501067    -0.14600
F4763       F  0.62273835  0.97992868  0.10505634    -0.14600
F4764       F  0.59220919  0.03737978  0.06197933    -0.16000
C4765       C  0.76251165  0.02044891  0.36905779     0.14000
C4766       C  0.75352921  0.00791821  0.35920121     0.01000
C4767       C  0.75493590  0.99421577  0.32943441     0.16000
C4768       C  0.76534142  0.99256593  0.31080541     0.25400
C4769       C  0.77445824  0.00481750  0.32135299    -0.40900
C4770       C  0.77282380  0.01904096  0.35023098     0.32400
C4771       C  0.74262067  0.00976002  0.37935144     0.01100
F4772       F  0.74622373  0.98247113  0.31843139    -0.13300
F4773       F  0.78144737  0.03074033  0.36218058    -0.13800
C4774       C  0.73659070  0.02759277  0.37706137     0.16000
C4775       C  0.72625750  0.02964430  0.39541551     0.25400
C4776       C  0.72155157  0.01370246  0.41637408    -0.40900
C4777       C  0.72788919  0.99603955  0.41994766     0.32400
C4778       C  0.73831890  0.99411466  0.40152578     0.14100
F4779       F  0.74058881  0.04296519  0.35598468    -0.13200
F4780       F  0.72398053  0.98051776  0.44079069    -0.13800
F4781       F  0.72076541  0.04722450  0.39149640    -0.16000
F4782       F  0.74425921  0.97700609  0.40548322    -0.14600
F4783       F  0.76141706  0.03359751  0.39806737    -0.14600
F4784       F  0.76653392  0.97888649  0.28275704    -0.16000
C4785       C  0.69128047  0.99469963  0.77671929     0.14000
C4786       C  0.68561725  0.00843127  0.75368746     0.01000
C4787       C  0.67940549  0.02379460  0.77063571     0.16000
C4788       C  0.67892765  0.02547269  0.81025016     0.25400
C4789       C  0.68468724  0.01177437  0.83354322    -0.40900
C4790       C  0.69084803  0.99632505  0.81618254     0.32400
C4791       C  0.68605260  0.00629582  0.71197476     0.01100
F4792       F  0.67373444  0.03706300  0.74877675    -0.13300
F4793       F  0.69693223  0.98327250  0.83724562    -0.13800
C4794       C  0.68135212  0.98944496  0.69480926     0.16000
C4795       C  0.68191240  0.98692393  0.65554584     0.25400
C4796       C  0.68716585  0.00138279  0.63231851    -0.40900
C4797       C  0.69205668  0.01816639  0.64992779     0.32400
C4798       C  0.69146447  0.02058723  0.68938096     0.14100
F4799       F  0.67604699  0.97548451  0.71619626    -0.13200
F4800       F  0.69748924  0.03221939  0.62917710    -0.13800
F4801       F  0.67714210  0.97033950  0.64051720    -0.16000
F4802       F  0.69634924  0.03673343  0.70565324    -0.14600
F4803       F  0.69752270  0.97998611  0.76083751    -0.14600
F4804       F  0.67283002  0.04048271  0.82573068    -0.16000
C4805       C  0.68130020  0.02241506  0.27055854     0.14000
C4806       C  0.68783439  0.00734680  0.25398706     0.01000
C4807       C  0.69313837  0.99333667  0.27749615     0.16000
C4808       C  0.69198320  0.99437591  0.31693906     0.25400
C4809       C  0.68550630  0.00955546  0.33381851    -0.40900
C4810       C  0.68014814  0.02354721  0.31008463     0.32400
C4811       C  0.68861969  0.00551582  0.21213348     0.01100
F4812       F  0.69968665  0.97887332  0.26220164    -0.13300
F4813       F  0.67376727  0.03832629  0.32507202    -0.13800
C4814       C  0.69344071  0.02064029  0.18987734     0.16000
C4815       C  0.69375832  0.01894161  0.15017388     0.25400
C4816       C  0.68915153  0.00210270  0.13193961    -0.40900
C4817       C  0.68458774  0.98675748  0.15481465     0.32400
C4818       C  0.68434176  0.98851065  0.19427269     0.14100
F4819       F  0.69791055  0.03701524  0.20665211    -0.13200
F4820       F  0.68005290  0.97009751  0.13926568    -0.13800
F4821       F  0.69856376  0.03381248  0.12975101    -0.16000
F4822       F  0.67956965  0.97375214  0.21513317    -0.14600
F4823       F  0.67589609  0.03587852  0.24837228    -0.14600
F4824       F  0.69766973  0.98103193  0.33859839    -0.16000
C4825       C  0.68589565  0.10438549  0.57135743     0.14000
C4826       C  0.69006627  0.11956042  0.54780175     0.01000
C4827       C  0.69411391  0.11468895  0.51164936     0.16000
C4828       C  0.69413001  0.09493133  0.49925108     0.25400
C4829       C  0.68998426  0.07951160  0.52273546    -0.40900
C4830       C  0.68576861  0.08455530  0.55891581     0.32400
C4831       C  0.69086398  0.14030936  0.56175562     0.01100
F4832       F  0.69831107  0.12907532  0.48858696    -0.13300
F4833       F  0.68169734  0.07033219  0.58258789    -0.13800
C4834       C  0.69917713  0.14537499  0.58824042     0.16000
C4835       C  0.70016681  0.16490639  0.60148615     0.25400
C4836       C  0.69276506  0.17993718  0.58866587    -0.40900
C4837       C  0.68444125  0.17474135  0.56173525     0.32400
C4838       C  0.68356523  0.15513342  0.54828778     0.14100
F4839       F  0.70646284  0.13133978  0.60101014    -0.13200
F4840       F  0.67701569  0.18848778  0.54876103    -0.13800
F4841       F  0.70843980  0.16898128  0.62691408    -0.16000
F4842       F  0.67547798  0.15052734  0.52249682    -0.14600
F4843       F  0.68198223  0.10881723  0.60654714    -0.14600
F4844       F  0.69819386  0.09101073  0.46401780    -0.16000
C4845       C  0.63295833  0.99307833  0.52037177     0.14000
C4846       C  0.62958129  0.00550402  0.55038423     0.01000
C4847       C  0.63767263  0.01719811  0.56896913     0.16000
C4848       C  0.64904306  0.01585099  0.55893179     0.25400
C4849       C  0.65252919  0.00269294  0.53014540    -0.40900
C4850       C  0.64434405  0.99160905  0.51043504     0.32400
C4851       C  0.61785174  0.00488711  0.56471018     0.01100
F4852       F  0.63463927  0.02902337  0.59845755    -0.13300
F4853       F  0.64739423  0.97911788  0.48195966    -0.13800
C4854       C  0.61370645  0.98736658  0.58128316     0.16000
C4855       C  0.60268862  0.98648730  0.59511297     0.25400
C4856       C  0.59552003  0.00309829  0.59238117    -0.40900
C4857       C  0.59982171  0.02090727  0.57692665     0.32400
C4858       C  0.61089860  0.02176106  0.56317383     0.14100
F4859       F  0.62038694  0.97106677  0.58420262    -0.13200
F4860       F  0.59315088  0.03717972  0.57330066    -0.13800
F4861       F  0.59901115  0.96930504  0.61113896    -0.16000
F4862       F  0.61472133  0.03884517  0.54715177    -0.14600
F4863       F  0.62523965  0.98203786  0.50126308    -0.14600
F4864       F  0.65672613  0.02634473  0.57928799    -0.16000
C4865       C  0.49076611  0.77152979  0.60187063     0.14000
C4866       C  0.49245147  0.75506173  0.62590154     0.01000
C4867       C  0.48354897  0.74152536  0.63096398     0.16000
C4868       C  0.47320901  0.74434649  0.61249678     0.25400
C4869       C  0.47146796  0.76084062  0.58835351    -0.40900
C4870       C  0.48039308  0.77445846  0.58349974     0.32400
C4871       C  0.50353281  0.75176563  0.64505466     0.01100
F4872       F  0.48473683  0.72585309  0.65494141    -0.13300
F4873       F  0.47909458  0.79068710  0.56100376    -0.13800
C4874       C  0.50828428  0.76633650  0.66889706     0.16000
C4875       C  0.51898445  0.76357639  0.68512109     0.25400
C4876       C  0.52522153  0.74614150  0.67787887    -0.40900
C4877       C  0.52018635  0.73121269  0.65518707     0.32400
C4878       C  0.50953083  0.73405240  0.63897158     0.14100
F4879       F  0.50255605  0.78333062  0.67645625    -0.13200
F4880       F  0.52577783  0.71416390  0.64683592    -0.13800
F4881       F  0.52326989  0.77811144  0.70763242    -0.16000
F4882       F  0.50528750  0.71977545  0.61574366    -0.14600
F4883       F  0.49923319  0.78472516  0.59583471    -0.14600
F4884       F  0.46469919  0.73143796  0.62001580    -0.16000
C4885       C  0.55182206  0.90496629  0.70855718     0.14000
C4886       C  0.55572735  0.89160523  0.68075323     0.01000
C4887       C  0.56042526  0.89916882  0.64721257     0.16000
C4888       C  0.56169710  0.91965923  0.64226575     0.25400
C4889       C  0.55833388  0.93309630  0.67091190    -0.40900
C4890       C  0.55311377  0.92552902  0.70372418     0.32400
C4891       C  0.55620187  0.86995618  0.68868801     0.01100
F4892       F  0.56430803  0.88667318  0.61992808    -0.13300
F4893       F  0.54964879  0.93792155  0.73178462    -0.13800
C4894       C  0.55128868  0.85587296  0.66413644     0.16000
C4895       C  0.55248843  0.83541839  0.67122888     0.25400
C4896       C  0.55864461  0.82877593  0.70298963    -0.40900
C4897       C  0.56340827  0.84305675  0.72761790     0.32400
C4898       C  0.56228093  0.86329596  0.72031750     0.14100
F4899       F  0.54534302  0.86193186  0.63332704    -0.13200
F4900       F  0.56919091  0.83755032  0.75917627    -0.13800
F4901       F  0.54781678  0.82220516  0.64670083    -0.16000
F4902       F  0.56747927  0.87646780  0.74372759    -0.14600
F4903       F  0.54699710  0.89802234  0.74088727    -0.14600
F4904       F  0.56631843  0.92629197  0.60935144    -0.16000
C4905       C  0.50967145  0.74060963  0.16499305     0.14000
C4906       C  0.50798856  0.75596242  0.13844077     0.01000
C4907       C  0.51677876  0.76948633  0.13157883     0.16000
C4908       C  0.52702636  0.76781215  0.15078863     0.25400
C4909       C  0.52885762  0.75226198  0.17686923    -0.40900
C4910       C  0.52003447  0.73869591  0.18387206     0.32400
C4911       C  0.49693324  0.75881385  0.11931377     0.01100
F4912       F  0.51554066  0.78407384  0.10525014    -0.13300
F4913       F  0.52145240  0.72355234  0.20891864    -0.13800
C4914       C  0.49125559  0.77694611  0.12361231     0.16000
C4915       C  0.48094124  0.78024570  0.10575162     0.25400
C4916       C  0.47585709  0.76531841  0.08332995    -0.40900
C4917       C  0.48161399  0.74709416  0.07875046     0.32400
C4918       C  0.49207679  0.74392850  0.09645439     0.14100
F4919       F  0.49555031  0.79136422  0.14640454    -0.13200
F4920       F  0.47710933  0.73226632  0.05742200    -0.13800
F4921       F  0.47569228  0.79783757  0.11227107    -0.16000
F4922       F  0.49749063  0.72638248  0.09107614    -0.14600
F4923       F  0.50125028  0.72759603  0.17292640    -0.14600
F4924       F  0.53540051  0.78077836  0.14201795    -0.16000
C4925       C  0.56833533  0.86292559  0.23526549     0.14000
C4926       C  0.56341404  0.87095254  0.20258924     0.01000
C4927       C  0.55926381  0.85811333  0.17438869     0.16000
C4928       C  0.56012997  0.83740415  0.17874770     0.25400
C4929       C  0.56523481  0.82926345  0.21136034    -0.40900
C4930       C  0.56921247  0.84235852  0.23976430     0.32400
C4931       C  0.56350819  0.89274058  0.19698607     0.01100
F4932       F  0.55467348  0.86566553  0.14218224    -0.13300
F4933       F  0.57387741  0.83533823  0.27230981    -0.13800
C4934       C  0.57357296  0.90214791  0.18663580     0.16000
C4935       C  0.57395236  0.92272911  0.18174810     0.25400
C4936       C  0.56425180  0.93442949  0.18740672    -0.40900
C4937       C  0.55420076  0.92500800  0.19875889     0.32400
C4938       C  0.55383461  0.90426461  0.20335381     0.14100
F4939       F  0.58304179  0.89128488  0.18077645    -0.13200
F4940       F  0.54463871  0.93571512  0.20382022    -0.13800
F4941       F  0.58385439  0.93119760  0.17122956    -0.16000
F4942       F  0.54405276  0.89539971  0.21387113    -0.14600
F4943       F  0.57240055  0.87511598  0.26279377    -0.14600
F4944       F  0.55625711  0.82539637  0.15065466    -0.16000
C4945       C  0.55479452  0.74215885  0.02759022     0.14000
C4946       C  0.56150781  0.75614856  0.00872760     0.01000
C4947       C  0.56876305  0.76842412  0.02999357     0.16000
C4948       C  0.56935459  0.76652002  0.06962501     0.25400
C4949       C  0.56278331  0.75213789  0.08841751    -0.40900
C4950       C  0.55543407  0.74010743  0.06683007     0.32400
C4951       C  0.56086818  0.75767339  0.96686033     0.01100
F4952       F  0.57545239  0.78192189  0.01228601    -0.13300
F4953       F  0.54856914  0.72658891  0.08373969    -0.13800
C4954       C  0.55790057  0.77567415  0.94947081     0.16000
C4955       C  0.55713090  0.77697513  0.90996679     0.25400
C4956       C  0.55931945  0.76020180  0.88689682    -0.40900
C4957       C  0.56199985  0.74202492  0.90465978     0.32400
C4958       C  0.56281247  0.74083685  0.94416158     0.14100
F4959       F  0.55560341  0.79198884  0.97080901    -0.13200
F4960       F  0.56424490  0.72547863  0.88393680    -0.13800
F4961       F  0.55427922  0.79476807  0.89447973    -0.16000
F4962       F  0.56579454  0.72327077  0.96028156    -0.14600
F4963       F  0.54741712  0.73063539  0.00796903    -0.14600
F4964       F  0.57652774  0.77836243  0.08937234    -0.16000
C4965       C  0.55708307  0.77230674  0.44932021     0.14000
C4966       C  0.56310766  0.75711805  0.46742096     0.01000
C4967       C  0.56853216  0.74255164  0.44552648     0.16000
C4968       C  0.56785283  0.74301544  0.40592964     0.25400
C4969       C  0.56172973  0.75812052  0.38758624    -0.40900
C4970       C  0.55634901  0.77277720  0.40974813     0.32400
C4971       C  0.56276006  0.75517026  0.50907692     0.01100
F4972       F  0.57460598  0.72799669  0.46265550    -0.13300
F4973       F  0.55032071  0.78754549  0.39309402    -0.13800
C4974       C  0.55704921  0.73896414  0.52497890     0.16000
C4975       C  0.55649887  0.73665044  0.56420685     0.25400
C4976       C  0.56172292  0.75051857  0.58845816    -0.40900
C4977       C  0.56729641  0.76703967  0.57247209     0.32400
C4978       C  0.56780467  0.76934335  0.53296649     0.14100
F4979       F  0.55173126  0.72559697  0.50230130    -0.13200
F4980       F  0.57237500  0.78077301  0.59498109    -0.13800
F4981       F  0.55046703  0.72118830  0.57841321    -0.16000
F4982       F  0.57330712  0.78523337  0.51805026    -0.14600
F4983       F  0.55171070  0.78643336  0.47003150    -0.14600
F4984       F  0.57359992  0.72921766  0.38557892    -0.16000
C4985       C  0.74122783  0.76107022  0.96483529     0.14000
C4986       C  0.74357710  0.74972330  0.99753314     0.01000
C4987       C  0.73569957  0.73551150  0.00955006     0.16000
C4988       C  0.72560289  0.73288548  0.98980965     0.25400
C4989       C  0.72302427  0.74464153  0.95770111    -0.40900
C4990       C  0.73100102  0.75870240  0.94531004     0.32400
C4991       C  0.75414363  0.75288356  0.01944848     0.01100
F4992       F  0.73754660  0.72474567  0.04156925    -0.13300
F4993       F  0.72889411  0.77020129  0.91444636    -0.13800
C4994       C  0.75680173  0.77175646  0.03399429     0.16000
C4995       C  0.76708228  0.77511621  0.05239366     0.25400
C4996       C  0.77503084  0.75963418  0.05648413    -0.40900
C4997       C  0.77195203  0.74037113  0.04416972     0.32400
C4998       C  0.76164991  0.73709205  0.02582500     0.14100
F4999       F  0.74945964  0.78707409  0.02998891    -0.13200
F5000       F  0.77911025  0.72477377  0.04801396    -0.13800
F5001       F  0.76935498  0.79377001  0.06500776    -0.16000
F5002       F  0.75925548  0.71860039  0.01259826    -0.14600
F5003       F  0.74885823  0.77447631  0.95182770    -0.14600
F5004       F  0.71803522  0.71961814  0.00376943    -0.16000
C5005       C  0.69843318  0.85751714  0.95432447     0.14000
C5006       C  0.69651820  0.87106927  0.92456210     0.01000
C5007       C  0.69403060  0.86378176  0.88827156     0.16000
C5008       C  0.69283108  0.84334307  0.88217336     0.25400
C5009       C  0.69419969  0.82968504  0.91227961    -0.40900
C5010       C  0.69738632  0.83695144  0.94818301     0.32400
C5011       C  0.69497745  0.89252880  0.93255376     0.01100
F5012       F  0.69203926  0.87657989  0.85921442    -0.13300
F5013       F  0.69877095  0.82430660  0.97785404    -0.13800
C5014       C  0.70274944  0.90697900  0.92041827     0.16000
C5015       C  0.70064387  0.92730616  0.92680148     0.25400
C5016       C  0.69066234  0.93344150  0.94517769    -0.40900
C5017       C  0.68285911  0.91873313  0.95647595     0.32400
C5018       C  0.68503301  0.89862025  0.95034023     0.14100
F5019       F  0.71240616  0.90138675  0.90283837    -0.13200
F5020       F  0.67299261  0.92370665  0.97339438    -0.13800
F5021       F  0.70846368  0.94085442  0.91572977    -0.16000
F5022       F  0.67725399  0.88495198  0.96120731    -0.14600
F5023       F  0.70079336  0.86429786  0.98973933    -0.14600
F5024       F  0.69005636  0.83695413  0.84681368    -0.16000
C5025       C  0.63624030  0.75031831  0.84349619     0.14000
C5026       C  0.63179269  0.76134143  0.81304432     0.01000
C5027       C  0.63911041  0.77301270  0.79097741     0.16000
C5028       C  0.65059840  0.77399758  0.79954913     0.25400
C5029       C  0.65507595  0.76325549  0.83038056    -0.40900
C5030       C  0.64779142  0.75114764  0.85194662     0.32400
C5031       C  0.61947369  0.76166652  0.80531524     0.01100
F5032       F  0.63511419  0.78338657  0.76077877    -0.13300
F5033       F  0.65178648  0.74054912  0.88185485    -0.13800
C5034       C  0.61358695  0.77967442  0.80772612     0.16000
C5035       C  0.60205778  0.78048461  0.80005818     0.25400
C5036       C  0.59599019  0.76317672  0.78967115    -0.40900
C5037       C  0.60195984  0.74503668  0.78733700     0.32400
C5038       C  0.61357548  0.74433563  0.79506523     0.14100
F5039       F  0.61901348  0.79659544  0.81819469    -0.13200
F5040       F  0.59660975  0.72791904  0.77771659    -0.13800
F5041       F  0.59688180  0.79839415  0.80331778    -0.16000
F5042       F  0.61911688  0.72677164  0.79189085    -0.14600
F5043       F  0.62933524  0.73924475  0.86578206    -0.14600
F5044       F  0.65741196  0.78505288  0.77689534    -0.16000
C5045       C  0.74606748  0.74103578  0.46363197     0.14000
C5046       C  0.74730763  0.75642058  0.49048755     0.01000
C5047       C  0.73821814  0.76936221  0.49688306     0.16000
C5048       C  0.72814947  0.76701568  0.47702901     0.25400
C5049       C  0.72672505  0.75115632  0.45129963    -0.40900
C5050       C  0.73580730  0.73820927  0.44472985     0.32400
C5051       C  0.75808965  0.75925817  0.51130673     0.01100
F5052       F  0.73888385  0.78386182  0.52362481    -0.13300
F5053       F  0.73475476  0.72279507  0.42010130    -0.13800
C5054       C  0.76316617  0.77811953  0.51263945     0.16000
C5055       C  0.77347472  0.78083787  0.53079544     0.25400
C5056       C  0.77930426  0.76454441  0.54675907    -0.40900
C5057       C  0.77399978  0.74575721  0.54673472     0.32400
C5058       C  0.76344460  0.74323202  0.52961189     0.14100
F5059       F  0.75841383  0.79391247  0.49475914    -0.13200
F5060       F  0.77908614  0.72966259  0.56243826    -0.13800
F5061       F  0.77790285  0.79946434  0.53114770    -0.16000
F5062       F  0.75848668  0.72504141  0.53075350    -0.14600
F5063       F  0.75481140  0.72877715  0.45550685    -0.14600
F5064       F  0.71953183  0.77960014  0.48499411    -0.16000
C5065       C  0.69746311  0.85670268  0.45533879     0.14000
C5066       C  0.69473399  0.86889533  0.42424027     0.01000
C5067       C  0.69169076  0.86024120  0.38966416     0.16000
C5068       C  0.69075027  0.83967273  0.38659335     0.25400
C5069       C  0.69280923  0.82733257  0.41824978    -0.40900
C5070       C  0.69661905  0.83595565  0.45227367     0.32400
C5071       C  0.69312580  0.89041197  0.42932640     0.01100
F5072       F  0.68903539  0.87182834  0.35938774    -0.13300
F5073       F  0.69886646  0.82446609  0.48304539    -0.13800
C5074       C  0.70192672  0.90400125  0.42354009     0.16000
C5075       C  0.70013277  0.92438987  0.42945966     0.25400
C5076       C  0.68952625  0.93127434  0.44158924    -0.40900
C5077       C  0.68059909  0.91756703  0.44509960     0.32400
C5078       C  0.68240673  0.89735854  0.43901705     0.14100
F5079       F  0.71226412  0.89746855  0.41295515    -0.13200
F5080       F  0.67011319  0.92367428  0.45501698    -0.13800
F5081       F  0.70888168  0.93719423  0.42524974    -0.16000
F5082       F  0.67371072  0.88441178  0.44323522    -0.14600
F5083       F  0.70033900  0.86496010  0.48914109    -0.14600
F5084       F  0.68759360  0.83186707  0.35265177    -0.16000
C5085       C  0.68807452  0.76453128  0.59566561     0.14000
C5086       C  0.69206839  0.74852373  0.61747923     0.01000
C5087       C  0.69555370  0.73111694  0.59918201     0.16000
C5088       C  0.69513505  0.72964790  0.55969548     0.25400
C5089       C  0.69131305  0.74576933  0.53728717    -0.40900
C5090       C  0.68768396  0.76320177  0.55596663     0.32400
C5091       C  0.69253040  0.74978586  0.65939556     0.01100
F5092       F  0.69967597  0.71563016  0.61964570    -0.13300
F5093       F  0.68376364  0.77901909  0.53600712    -0.13800
C5094       C  0.68623741  0.73650864  0.68177053     0.16000
C5095       C  0.68639115  0.73800594  0.72137994     0.25400
C5096       C  0.69280447  0.75290989  0.73922703    -0.40900
C5097       C  0.69946497  0.76565074  0.71678856     0.32400
C5098       C  0.69932066  0.76410356  0.67722160     0.14100
F5099       F  0.67957958  0.72259465  0.66512306    -0.13200
F5100       F  0.70607054  0.77971668  0.73323217    -0.13800
F5101       F  0.67974549  0.72566126  0.74206883    -0.16000
F5102       F  0.70581330  0.77659149  0.65627535    -0.14600
F5103       F  0.68445501  0.78141609  0.61288969    -0.14600
F5104       F  0.69877628  0.71246999  0.54363604    -0.16000
C5105       C  0.69690458  0.77184963  0.09251641     0.14000
C5106       C  0.69158534  0.75835447  0.11714698     0.01000
C5107       C  0.68452757  0.74360350  0.10203962     0.16000
C5108       C  0.68298624  0.74205517  0.06284081     0.25400
C5109       C  0.68843101  0.75534314  0.03795303    -0.40900
C5110       C  0.69533877  0.77038873  0.05324182     0.32400
C5111       C  0.69302659  0.76006309  0.15871775     0.01100
F5112       F  0.67906861  0.73073325  0.12536120    -0.13300
F5113       F  0.70111759  0.78293864  0.03014616    -0.13800
C5114       C  0.68942277  0.77730283  0.17736409     0.16000
C5115       C  0.68998558  0.77861912  0.21681543     0.25400
C5116       C  0.69427954  0.76269158  0.23864741    -0.40900
C5117       C  0.69805043  0.74548937  0.21976450     0.32400
C5118       C  0.69742166  0.74420525  0.18011295     0.14100
F5119       F  0.68482409  0.79255551  0.15741382    -0.13200
F5120       F  0.70226060  0.72986246  0.23959133    -0.13800
F5121       F  0.68570486  0.79514161  0.23361347    -0.16000
F5122       F  0.70103278  0.72741584  0.16255588    -0.14600
F5123       F  0.70392607  0.78602117  0.10647652    -0.14600
F5124       F  0.67623420  0.72740428  0.04919665    -0.16000
C5125       C  0.63871194  0.77467170  0.33066687     0.14000
C5126       C  0.63405315  0.75638651  0.31931588     0.01000
C5127       C  0.64125295  0.74000457  0.31411820     0.16000
C5128       C  0.65285633  0.74181488  0.32083860     0.25400
C5129       C  0.65748021  0.76005188  0.33295208    -0.40900
C5130       C  0.65025433  0.77650985  0.33736531     0.32400
C5131       C  0.62171221  0.75482529  0.31254479     0.01100
F5132       F  0.63704423  0.72218372  0.30286909    -0.13300
F5133       F  0.65432013  0.79447974  0.34845481    -0.13800
C5134       C  0.61746193  0.74879413  0.27702273     0.16000
C5135       C  0.60587249  0.74965563  0.26949838     0.25400
C5136       C  0.59841397  0.75709570  0.29695065    -0.40900
C5137       C  0.60258362  0.76220982  0.33300900     0.32400
C5138       C  0.61409541  0.76082701  0.34089379     0.14100
F5139       F  0.62457282  0.74306617  0.24894897    -0.13200
F5140       F  0.59547332  0.76850856  0.36068491    -0.13800
F5141       F  0.60200997  0.74426236  0.23472432    -0.16000
F5142       F  0.61784765  0.76561545  0.37615664    -0.14600
F5143       F  0.63207952  0.79097901  0.33458537    -0.14600
F5144       F  0.65959790  0.72588335  0.31438058    -0.16000
C5145       C  0.51374960  0.52530260  0.00912358     0.14000
C5146       C  0.50602206  0.51110642  0.99602928     0.01000
C5147       C  0.50897774  0.49904316  0.96488719     0.16000
C5148       C  0.51959821  0.50090840  0.94769637     0.25400
C5149       C  0.52738719  0.51505935  0.96110251    -0.40900
C5150       C  0.52426060  0.52733108  0.99186741     0.32400
C5151       C  0.49501784  0.50871605  0.01559989     0.01100
F5152       F  0.50154449  0.48552618  0.95101948    -0.13300
F5153       F  0.53160822  0.54070804  0.00675906    -0.13800
C5154       C  0.48754834  0.52484540  0.01876154     0.16000
C5155       C  0.47712900  0.52255546  0.03691319     0.25400
C5156       C  0.47393417  0.50400851  0.05219394    -0.40900
C5157       C  0.48162638  0.48806326  0.05003769     0.32400
C5158       C  0.49203590  0.49041516  0.03196933     0.14100
F5159       F  0.49014426  0.54263429  0.00273726    -0.13200
F5160       F  0.47898616  0.46998921  0.06476986    -0.13800
F5161       F  0.46989371  0.53816535  0.03723582    -0.16000
F5162       F  0.49921671  0.47474367  0.03037189    -0.14600
F5163       F  0.51128735  0.53674229  0.03976998    -0.14600
F5164       F  0.52222237  0.48898121  0.91790419    -0.16000
C5165       C  0.55484009  0.40380234  0.95881526     0.14000
C5166       C  0.55594615  0.38999140  0.92900048     0.01000
C5167       C  0.55700183  0.39701031  0.89168038     0.16000
C5168       C  0.55768788  0.41743325  0.88450354     0.25400
C5169       C  0.55720069  0.43131753  0.91450642    -0.40900
C5170       C  0.55541727  0.42430608  0.95164220     0.32400
C5171       C  0.55754895  0.36852520  0.93723843     0.01100
F5172       F  0.55802365  0.38404728  0.86233153    -0.13300
F5173       F  0.55490527  0.43718158  0.98124890    -0.13800
C5174       C  0.55032705  0.35390430  0.92227161     0.16000
C5175       C  0.55231930  0.33365411  0.92944247     0.25400
C5176       C  0.56157684  0.32768504  0.95184532    -0.40900
C5177       C  0.56885861  0.34251199  0.96619270     0.32400
C5178       C  0.56685951  0.36258985  0.95889120     0.14100
F5179       F  0.54122832  0.35925666  0.90132577    -0.13200
F5180       F  0.57800743  0.33772122  0.98740395    -0.13800
F5181       F  0.54505521  0.31999432  0.91506413    -0.16000
F5182       F  0.57420135  0.37634111  0.97251469    -0.14600
F5183       F  0.55359016  0.39735287  0.99509556    -0.14600
F5184       F  0.55904386  0.42361750  0.84808599    -0.16000
C5185       C  0.56809941  0.60742224  0.81268502     0.14000
C5186       C  0.56249083  0.62254447  0.83249682     0.01000
C5187       C  0.55683085  0.61796242  0.86622984     0.16000
C5188       C  0.55653174  0.59839446  0.87966045     0.25400
C5189       C  0.56190188  0.58290707  0.85942691    -0.40900
C5190       C  0.56785225  0.58778991  0.82598427     0.32400
C5191       C  0.56186222  0.64282753  0.81652735     0.01100
F5192       F  0.55131757  0.63241104  0.88566145    -0.13300
F5193       F  0.57332044  0.57360698  0.80572446    -0.13800
C5194       C  0.55440370  0.64674789  0.78668600     0.16000
C5195       C  0.55374915  0.66576160  0.77085039     0.25400
C5196       C  0.56063149  0.68136933  0.78450704    -0.40900
C5197       C  0.56798699  0.67736299  0.81512319     0.32400
C5198       C  0.56855217  0.65825998  0.83099365     0.14100
F5199       F  0.54766935  0.63207697  0.77299697    -0.13200
F5200       F  0.57472715  0.69180369  0.82960788    -0.13800
F5201       F  0.54634675  0.66873940  0.74204205    -0.16000
F5202       F  0.57573774  0.65473673  0.86019870    -0.14600
F5203       F  0.57373024  0.61169287  0.78015345    -0.14600
F5204       F  0.55085477  0.59470204  0.91235396    -0.16000
C5205       C  0.51308540  0.52625425  0.50642397     0.14000
C5206       C  0.50514789  0.51287970  0.49166032     0.01000
C5207       C  0.50791643  0.50176350  0.45909429     0.16000
C5208       C  0.51858164  0.50351398  0.44230648     0.25400
C5209       C  0.52660287  0.51671934  0.45737344    -0.40900
C5210       C  0.52366673  0.52821211  0.48948350     0.32400
C5211       C  0.49415878  0.50994259  0.51102620     0.01100
F5212       F  0.50024581  0.48921457  0.44350577    -0.13300
F5213       F  0.53125265  0.54066843  0.50587861    -0.13800
C5214       C  0.48666802  0.52587721  0.51614401     0.16000
C5215       C  0.47610206  0.52277110  0.53282885     0.25400
C5216       C  0.47277601  0.50357057  0.54473817    -0.40900
C5217       C  0.48055520  0.48782286  0.54092644     0.32400
C5218       C  0.49110454  0.49102648  0.52438130     0.14100
F5219       F  0.48939916  0.54435103  0.50357289    -0.13200
F5220       F  0.47794055  0.46914138  0.55261725    -0.13800
F5221       F  0.46897261  0.53846991  0.53563525    -0.16000
F5222       F  0.49837939  0.47555204  0.52131044    -0.14600
F5223       F  0.51076712  0.53685440  0.53828748    -0.14600
F5224       F  0.52102893  0.49238529  0.41126271    -0.16000
C5225       C  0.56238192  0.39814455  0.40625680     0.14000
C5226       C  0.55464933  0.39086878  0.43277414     0.01000
C5227       C  0.54819526  0.40442748  0.45400600     0.16000
C5228       C  0.54971501  0.42505993  0.44943288     0.25400
C5229       C  0.55781989  0.43242167  0.42377351    -0.40900
C5230       C  0.56393273  0.41855743  0.40161218     0.32400
C5231       C  0.55466375  0.36929536  0.44143291     0.01100
F5232       F  0.54058185  0.39763963  0.47964696    -0.13300
F5233       F  0.57161880  0.42459792  0.37550671    -0.13800
C5234       C  0.55965965  0.36279450  0.47523627     0.16000
C5235       C  0.56184849  0.34264375  0.48106392     0.25400
C5236       C  0.55905760  0.32841385  0.45314005    -0.40900
C5237       C  0.55346721  0.33480693  0.42005176     0.32400
C5238       C  0.55138961  0.35514474  0.41410031     0.14100
F5239       F  0.56302512  0.37615449  0.50182944    -0.13200
F5240       F  0.55046356  0.32155057  0.39279641    -0.13800
F5241       F  0.56684030  0.33713085  0.51411573    -0.16000
F5242       F  0.54649038  0.36111291  0.38120448    -0.14600
F5243       F  0.56890605  0.38537379  0.38607192    -0.14600
F5244       F  0.54345643  0.43772170  0.47069422    -0.16000
C5245       C  0.56771960  0.52105313  0.68566581     0.14000
C5246       C  0.55902289  0.51354369  0.66261643     0.01000
C5247       C  0.54935472  0.50549397  0.67992338     0.16000
C5248       C  0.54869654  0.50396985  0.71949806     0.25400
C5249       C  0.55747899  0.51118774  0.74228760    -0.40900
C5250       C  0.56688559  0.52008895  0.72517855     0.32400
C5251       C  0.56020477  0.51371860  0.62066862     0.01100
F5252       F  0.54060751  0.49894547  0.65848533    -0.13300
F5253       F  0.57564696  0.52651918  0.74672927    -0.13800
C5254       C  0.55918474  0.49606391  0.59954053     0.16000
C5255       C  0.56019496  0.49632406  0.55989356     0.25400
C5256       C  0.56240150  0.51428777  0.54049428    -0.40900
C5257       C  0.56383291  0.53182204  0.56223101     0.32400
C5258       C  0.56259992  0.53153085  0.60162420     0.14100
F5259       F  0.55725903  0.47848376  0.61737295    -0.13200
F5260       F  0.56615007  0.54956328  0.54554579    -0.13800
F5261       F  0.55878918  0.47900483  0.54066866    -0.16000
F5262       F  0.56342441  0.54889411  0.62112614    -0.14600
F5263       F  0.57729320  0.52837558  0.66990544    -0.14600
F5264       F  0.53959738  0.49513822  0.73561706    -0.16000
C5265       C  0.56997381  0.51646288  0.10258445     0.14000
C5266       C  0.56416629  0.50055258  0.11937077     0.01000
C5267       C  0.55943647  0.48577573  0.09598941     0.16000
C5268       C  0.55997604  0.48748821  0.05640775     0.25400
C5269       C  0.56517065  0.50412904  0.03958209    -0.40900
C5270       C  0.57043405  0.51830077  0.06314582     0.32400
C5271       C  0.56300030  0.49954982  0.16122739     0.01100
F5272       F  0.55380235  0.47018393  0.11147008    -0.13300
F5273       F  0.57583733  0.53424456  0.04801115    -0.13800
C5274       C  0.55806886  0.51530372  0.18156933     0.16000
C5275       C  0.55737266  0.51465911  0.22129683     0.25400
C5276       C  0.56156584  0.49813981  0.24149173    -0.40900
C5277       C  0.56634556  0.48224648  0.22059762     0.32400
C5278       C  0.56704196  0.48300601  0.18109425     0.14100
F5279       F  0.55384949  0.53129903  0.16284523    -0.13200
F5280       F  0.57072239  0.46604190  0.23821871    -0.13800
F5281       F  0.55259224  0.53021088  0.23979045    -0.16000
F5282       F  0.57203895  0.46776262  0.16227542    -0.14600
F5283       F  0.57512293  0.53037911  0.12448129    -0.14600
F5284       F  0.55475251  0.47356654  0.03472945    -0.16000
C5285       C  0.55362714  0.61432332  0.34208467     0.14000
C5286       C  0.56213814  0.61905787  0.31600665     0.01000
C5287       C  0.56948055  0.60406701  0.30363591     0.16000
C5288       C  0.56845448  0.58466509  0.31768107     0.25400
C5289       C  0.56000411  0.57986085  0.34436086    -0.40900
C5290       C  0.55256678  0.59498660  0.35622131     0.32400
C5291       C  0.56321011  0.63968005  0.30171971     0.01100
F5292       F  0.57782812  0.60833539  0.27860737    -0.13300
F5293       F  0.54421024  0.59116549  0.38147075    -0.13800
C5294       C  0.56552031  0.65536734  0.32693297     0.16000
C5295       C  0.56556383  0.67508833  0.31414842     0.25400
C5296       C  0.56319193  0.67944578  0.27592742    -0.40900
C5297       C  0.56124550  0.66359938  0.25047565     0.32400
C5298       C  0.56129803  0.64391204  0.26326416     0.14100
F5299       F  0.56760480  0.65154808  0.36411471    -0.13200
F5300       F  0.55928142  0.66714452  0.21309315    -0.13800
F5301       F  0.56745469  0.68992479  0.33948193    -0.16000
F5302       F  0.55909190  0.62900626  0.23832702    -0.14600
F5303       F  0.54622650  0.62847296  0.35355389    -0.14600
F5304       F  0.57595058  0.57076584  0.30583339    -0.16000
C5305       C  0.73752630  0.49686917  0.64693133     0.14000
C5306       C  0.74273822  0.51326938  0.62948326     0.01000
C5307       C  0.73744930  0.53193883  0.63164595     0.16000
C5308       C  0.72702834  0.53405090  0.64984768     0.25400
C5309       C  0.72155851  0.51745178  0.66626880    -0.40900
C5310       C  0.72711286  0.49889602  0.66513688     0.32400
C5311       C  0.75381338  0.51093576  0.61001701     0.01100
F5312       F  0.74220175  0.54810875  0.61499188    -0.13300
F5313       F  0.72238908  0.48243934  0.68080786    -0.13800
C5314       C  0.75537750  0.49642448  0.58162002     0.16000
C5315       C  0.76605238  0.49327436  0.56556559     0.25400
C5316       C  0.77531176  0.50496088  0.57682861    -0.40900
C5317       C  0.77362191  0.51988206  0.60433909     0.32400
C5318       C  0.76304246  0.52271848  0.62089426     0.14100
F5319       F  0.74655827  0.48524025  0.56950275    -0.13200
F5320       F  0.78240788  0.53092312  0.61719118    -0.13800
F5321       F  0.76733314  0.47876459  0.53913250    -0.16000
F5322       F  0.76196598  0.53636185  0.64906053    -0.14600
F5323       F  0.74255985  0.47875926  0.64652408    -0.14600
F5324       F  0.72220455  0.55234890  0.65034519    -0.16000
C5325       C  0.70237537  0.40667891  0.66702785     0.14000
C5326       C  0.69703838  0.39187029  0.68897201     0.01000
C5327       C  0.68944980  0.39777649  0.71730360     0.16000
C5328       C  0.68702938  0.41786719  0.72315502     0.25400
C5329       C  0.69211408  0.43281611  0.70065344    -0.40900
C5330       C  0.69992629  0.42692982  0.67272703     0.32400
C5331       C  0.69825265  0.37028130  0.67995931     0.01100
F5332       F  0.68394101  0.38397061  0.73845741    -0.13300
F5333       F  0.70507506  0.44068403  0.65048119    -0.13800
C5334       C  0.70084867  0.35620771  0.70839702     0.16000
C5335       C  0.69993928  0.33568485  0.70109341     0.25400
C5336       C  0.69640799  0.32889742  0.66521632    -0.40900
C5337       C  0.69450905  0.34302217  0.63629935     0.32400
C5338       C  0.69538837  0.36339253  0.64360023     0.14100
F5339       F  0.70394415  0.36236804  0.74359158    -0.13200
F5340       F  0.69156273  0.33712301  0.60078974    -0.13800
F5341       F  0.70190543  0.32257441  0.72963046    -0.16000
F5342       F  0.69273784  0.37642561  0.61554868    -0.14600
F5343       F  0.70992578  0.40151969  0.63986228    -0.14600
F5344       F  0.67955565  0.42252265  0.75091409    -0.16000
C5345       C  0.68038496  0.60456743  0.82279059     0.14000
C5346       C  0.68533810  0.62070235  0.80369985     0.01000
C5347       C  0.69064586  0.61738533  0.76868939     0.16000
C5348       C  0.69115208  0.59826799  0.75319501     0.25400
C5349       C  0.68638526  0.58188702  0.77250119    -0.40900
C5350       C  0.68088351  0.58536704  0.80741796     0.32400
C5351       C  0.68539854  0.64088411  0.82077347     0.01100
F5352       F  0.69563504  0.63265205  0.74985750    -0.13300
F5353       F  0.67605613  0.57022193  0.82705203    -0.13800
C5354       C  0.69049792  0.64410082  0.85620407     0.16000
C5355       C  0.69125351  0.66328158  0.87135182     0.25400
C5356       C  0.68691472  0.67977254  0.85132506    -0.40900
C5357       C  0.68163867  0.67640499  0.81598074     0.32400
C5358       C  0.68087950  0.65716966  0.80098036     0.14100
F5359       F  0.69506147  0.62868216  0.87574868    -0.13200
F5360       F  0.67735433  0.69171276  0.79544462    -0.13800
F5361       F  0.69628456  0.66560518  0.90567880    -0.16000
F5362       F  0.67569579  0.65442755  0.76701881    -0.14600
F5363       F  0.67499635  0.60743546  0.85632868    -0.14600
F5364       F  0.69635157  0.59591912  0.71918356    -0.16000
C5365       C  0.63498956  0.51903954  0.78548578     0.14000
C5366       C  0.62939122  0.50289393  0.80234128     0.01000
C5367       C  0.63542786  0.48558195  0.81092156     0.16000
C5368       C  0.64682189  0.48412507  0.80213107     0.25400
C5369       C  0.65250921  0.50003152  0.78433199    -0.40900
C5370       C  0.64646368  0.51763610  0.77644318     0.32400
C5371       C  0.61715773  0.50335880  0.80986083     0.01100
F5372       F  0.63025598  0.47004213  0.82834298    -0.13300
F5373       F  0.65157649  0.53339151  0.75956747    -0.13800
C5374       C  0.61015001  0.48950442  0.79173529     0.16000
C5375       C  0.59881084  0.48802647  0.80147757     0.25400
C5376       C  0.59418248  0.50050749  0.82951763    -0.40900
C5377       C  0.60114968  0.51491100  0.84680388     0.32400
C5378       C  0.61257078  0.51626255  0.83709045     0.14100
F5379       F  0.61435321  0.47726713  0.76456316    -0.13200
F5380       F  0.59701273  0.52727741  0.87386799    -0.13800
F5381       F  0.59232118  0.47457154  0.78281726    -0.16000
F5382       F  0.61923419  0.52965957  0.85519508    -0.14600
F5383       F  0.62929470  0.53597157  0.77708121    -0.14600
F5384       F  0.65230815  0.46720141  0.81206641    -0.16000
C5385       C  0.75483592  0.50265255  0.07304753     0.14000
C5386       C  0.75369756  0.51502220  0.10503892     0.01000
C5387       C  0.76310925  0.52573538  0.11792628     0.16000
C5388       C  0.77357918  0.52336509  0.10032257     0.25400
C5389       C  0.77486563  0.51011108  0.06951537    -0.40900
C5390       C  0.76533230  0.50011626  0.05560814     0.32400
C5391       C  0.74280278  0.51614832  0.12565604     0.01100
F5392       F  0.76231652  0.53766120  0.14892811    -0.13300
F5393       F  0.76621826  0.48764078  0.02548782    -0.13800
C5394       C  0.73772307  0.49878726  0.13991362     0.16000
C5395       C  0.72716787  0.49957010  0.15756288     0.25400
C5396       C  0.72151672  0.51785860  0.16192917    -0.40900
C5397       C  0.72691067  0.53536584  0.14901127     0.32400
C5398       C  0.73737068  0.53446381  0.13086939     0.14100
F5399       F  0.74297807  0.48096101  0.13646858    -0.13200
F5400       F  0.72198222  0.55345290  0.15308575    -0.13800
F5401       F  0.72232696  0.48227008  0.16890684    -0.16000
F5402       F  0.74199928  0.55147008  0.11709993    -0.14600
F5403       F  0.74577286  0.49280250  0.05898414    -0.14600
F5404       F  0.78261770  0.53294532  0.11534175    -0.16000
C5405       C  0.69998039  0.36278351  0.14146988     0.14000
C5406       C  0.69790796  0.37059845  0.17775349     0.01000
C5407       C  0.69622313  0.35735592  0.20831779     0.16000
C5408       C  0.69569175  0.33675866  0.20209737     0.25400
C5409       C  0.69683087  0.32915551  0.16522522    -0.40900
C5410       C  0.69938226  0.34225846  0.13525712     0.32400
C5411       C  0.69584328  0.39226864  0.18269939     0.01100
F5412       F  0.69451692  0.36449534  0.24389722    -0.13300
F5413       F  0.70082110  0.33517158  0.09948603    -0.13800
C5414       C  0.68528659  0.39859716  0.19579987     0.16000
C5415       C  0.68303615  0.41875889  0.20113940     0.25400
C5416       C  0.69129577  0.43328734  0.19338659    -0.40900
C5417       C  0.70173787  0.42703524  0.17855794     0.32400
C5418       C  0.70399096  0.40667860  0.17329819     0.14100
F5419       F  0.67703652  0.38514520  0.20316062    -0.13200
F5420       F  0.70992586  0.44049614  0.17060066    -0.13800
F5421       F  0.67268938  0.42399514  0.21405789    -0.16000
F5422       F  0.71423626  0.40102447  0.16014206    -0.14600
F5423       F  0.70174867  0.37507804  0.11147814    -0.14600
F5424       F  0.69318568  0.32445409  0.23146008    -0.16000
C5425       C  0.68160492  0.52629972  0.01931766     0.14000
C5426       C  0.68604317  0.50924985  0.00206162     0.01000
C5427       C  0.68930207  0.49309338  0.02484811     0.16000
C5428       C  0.68829419  0.49404944  0.06432062     0.25400
C5429       C  0.68418301  0.51141507  0.08199469    -0.40900
C5430       C  0.68067512  0.52741861  0.05878816     0.32400
C5431       C  0.68667041  0.50778114  0.96020555     0.01100
F5432       F  0.69373569  0.47648539  0.00883928    -0.13300
F5433       F  0.67644563  0.54436130  0.07410718    -0.13800
C5434       C  0.69269566  0.52178687  0.93847644     0.16000
C5435       C  0.69312746  0.52008783  0.89880248     0.25400
C5436       C  0.68762700  0.50423265  0.88042375    -0.40900
C5437       C  0.68150948  0.49042660  0.90248280     0.32400
C5438       C  0.68101810  0.49225522  0.94177663     0.14100
F5439       F  0.69828544  0.53691640  0.95571126    -0.13200
F5440       F  0.67561738  0.47541278  0.88599738    -0.13800
F5441       F  0.69906505  0.53369740  0.87854906    -0.16000
F5442       F  0.67472541  0.47907218  0.96187603    -0.14600
F5443       F  0.67804125  0.54184968  0.99787114    -0.14600
F5444       F  0.69172507  0.47815301  0.08507971    -0.16000
C5445       C  0.68150787  0.52221947  0.51821791     0.14000
C5446       C  0.68882378  0.50821682  0.50207337     0.01000
C5447       C  0.69474872  0.49509551  0.52576222     0.16000
C5448       C  0.69344448  0.49605450  0.56515642     0.25400
C5449       C  0.68618159  0.51020471  0.58151775    -0.40900
C5450       C  0.68019439  0.52323533  0.55761025     0.32400
C5451       C  0.68959172  0.50630263  0.46040113     0.01100
F5452       F  0.70198468  0.48162521  0.51069221    -0.13300
F5453       F  0.67304565  0.53693787  0.57237918    -0.13800
C5454       C  0.69413898  0.52158827  0.43795020     0.16000
C5455       C  0.69417701  0.51997079  0.39824393     0.25400
C5456       C  0.68958414  0.50301725  0.38033990    -0.40900
C5457       C  0.68516697  0.48764077  0.40346812     0.32400
C5458       C  0.68523350  0.48930079  0.44289685     0.14100
F5459       F  0.69854228  0.53807348  0.45454345    -0.13200
F5460       F  0.68043320  0.47107876  0.38822310    -0.13800
F5461       F  0.69863931  0.53506019  0.37751977    -0.16000
F5462       F  0.68064751  0.47450243  0.46412867    -0.14600
F5463       F  0.67550769  0.53471293  0.49571065    -0.14600
F5464       F  0.69972587  0.48381529  0.58733025    -0.16000
C5465       C  0.69418977  0.61712792  0.25954830     0.14000
C5466       C  0.69063302  0.62142149  0.29653892     0.01000
C5467       C  0.68670291  0.60600441  0.31987386     0.16000
C5468       C  0.68646392  0.58639886  0.30658813     0.25400
C5469       C  0.69023426  0.58186646  0.26964590    -0.40900
C5470       C  0.69400595  0.59757297  0.24613964     0.32400
C5471       C  0.69151999  0.64187638  0.31137663     0.01100
F5472       F  0.68311257  0.60998844  0.35564595    -0.13300
F5473       F  0.69749032  0.59413504  0.21001880    -0.13800
C5474       C  0.68418880  0.65679442  0.29870949     0.16000
C5475       C  0.68509610  0.67617236  0.31290077     0.25400
C5476       C  0.69348638  0.68102180  0.33976529    -0.40900
C5477       C  0.70087444  0.66587132  0.35210216     0.32400
C5478       C  0.69983793  0.64651655  0.33812783     0.14100
F5479       F  0.67600046  0.65247067  0.27311215    -0.13200
F5480       F  0.70912764  0.66963628  0.37779383    -0.13800
F5481       F  0.67760192  0.69001954  0.30080270    -0.16000
F5482       F  0.70703826  0.63224425  0.35050839    -0.14600
F5483       F  0.69807952  0.63187004  0.23666950    -0.14600
F5484       F  0.68271779  0.57187600  0.33019547    -0.16000
C5485       C  0.61181406  0.52234743  0.31686490     0.14000
C5486       C  0.61926765  0.50648524  0.32311897     0.01000
C5487       C  0.61540307  0.48948146  0.34215512     0.16000
C5488       C  0.60411976  0.48773918  0.35270628     0.25400
C5489       C  0.59638227  0.50300796  0.34432694    -0.40900
C5490       C  0.60045620  0.52067030  0.32739347     0.32400
C5491       C  0.63091233  0.50686356  0.30805291     0.01100
F5492       F  0.62257292  0.47430290  0.34988454    -0.13300
F5493       F  0.59338456  0.53592675  0.31917055    -0.13800
C5494       C  0.63903598  0.51979576  0.32318635     0.16000
C5495       C  0.65028763  0.51852027  0.31138018     0.25400
C5496       C  0.65359385  0.50416213  0.28437249    -0.40900
C5497       C  0.64533165  0.49170926  0.26840976     0.32400
C5498       C  0.63410867  0.49311116  0.28004324     0.14100
F5499       F  0.63618475  0.53289936  0.35086911    -0.13200
F5500       F  0.64814277  0.47797344  0.24182433    -0.13800
F5501       F  0.65805146  0.53045773  0.32818915    -0.16000
F5502       F  0.62634666  0.48070932  0.26450748    -0.14600
F5503       F  0.61540849  0.53905250  0.29890280    -0.14600
F5504       F  0.60075265  0.47084532  0.37051768    -0.16000
loop_ 
_geom_bond_atom_site_label_1 
_geom_bond_atom_site_label_2 
_geom_bond_distance 
_geom_bond_site_symmetry_2 
_ccdc_geom_bond_type 
O1           Ni7   1.919       .  S
O1           C22   1.269       .  A
O2          Ni25   1.923       .  S
O2           C11   1.272       .  A
O3           Ni7   1.892       .  S
O3          Ni25   1.902       .  S
O3          Ni19   1.918       .  S
O3           H26   0.966       .  S
C4           O21   1.281       .  A
C4           O13   1.279       .  A
C4         C5456   1.492       .  S
O5          Ni24   1.926       .  S
O5           C11   1.272       .  A
O6          Ni24   1.910       .  S
O6            C8   1.268       .  A
Ni7          O10   1.911       .  S
Ni7          O12   1.907       .  S
C8           O18   1.271       .  A
C8         C5496   1.485       .  S
O9          Ni25   1.929       .  S
O9           C15   1.280       .  A
O10          C15   1.276       .  A
C11        C5416   1.490       .  S
O12          C14   1.269       .  A
O13         Ni24   1.925       .  S
C14          O20   1.276       .  A
C14        C5396   1.492       .  S
C15        C5429   1.488       .  S
H16          O17   0.968       .  S
O17         Ni25   1.909       .  S
O17         Ni19   1.903       .  S
O17         Ni24   1.894       .  S
O18         Ni19   1.933       .  S
Ni19         O23   1.917       .  S
Ni19         O21   1.923       .  S
O20         Ni25   1.934       .  S
C22          O23   1.271       .  A
C22        C5469   1.487       .  S
O27         Ni33   1.932       .  S
O27          C48   1.273       .  A
O28         Ni51   1.933       .  S
O28          C37   1.273       .  A
O29         Ni33   1.900       .  S
O29         Ni51   1.909       .  S
O29         Ni45   1.918       .  S
O29          H52   0.967       .  S
C30          O47   1.280       .  A
C30          O39   1.277       .  A
C30        C5436   1.482       .  S
O31         Ni50   1.913       .  S
O31          C37   1.266       .  A
O32         Ni50   1.900       .  S
O32          C34   1.267       .  A
Ni33         O36   1.918       .  S
Ni33         O38   1.914       .  S
C34          O44   1.270       .  A
C34        C5369   1.487       .  S
O35         Ni51   1.922       .  S
O35          C41   1.279       .  A
O36          C41   1.277       .  A
C37        C5329   1.496       .  S
O38          C40   1.271       .  A
O39         Ni50   1.912       .  S
C40          O46   1.274       .  A
C40        C5309   1.497       .  S
C41        C5449   1.478       .  S
H42          O43   0.967       .  S
O43         Ni51   1.913       .  S
O43         Ni45   1.902       .  S
O43         Ni50   1.897       .  S
O44         Ni45   1.928       .  S
Ni45         O49   1.910       .  S
Ni45         O47   1.927       .  S
O46         Ni51   1.927       .  S
C48          O49   1.269       .  A
C48        C5349   1.492       .  S
O53         Ni59   1.928       .  S
O53          C74   1.272       .  A
O54         Ni77   1.942       .  S
O54          C63   1.275       .  A
O55         Ni59   1.889       .  S
O55         Ni77   1.909       .  S
O55         Ni71   1.921       .  S
O55          H78   0.967       .  S
C56          O73   1.283       .  A
C56          O65   1.278       .  A
C56        C5276   1.493       .  S
O57         Ni76   1.906       .  S
O57          C63   1.264       .  A
O58         Ni76   1.903       .  S
O58          C60   1.266       .  A
Ni59         O62   1.914       .  S
Ni59         O64   1.905       .  S
C60          O70   1.268       .  A
C60        C5489   1.490       .  S
O61         Ni77   1.938       .  S
O61          C67   1.283       .  A
O62          C67   1.277       .  A
C63        C5229   1.496       .  S
O64          C66   1.270       .  A
O65         Ni76   1.917       .  S
C66          O72   1.278       .  A
C66        C5209   1.487       .  S
C67        C5256   1.494       .  S
H68          O69   0.972       .  S
O69         Ni77   1.921       .  S
O69         Ni71   1.898       .  S
O69         Ni76   1.895       .  S
O70         Ni71   1.929       .  S
Ni71         O75   1.909       .  S
Ni71         O73   1.932       .  S
O72         Ni77   1.939       .  S
C74          O75   1.268       .  A
C74        C5289   1.489       .  S
O79         Ni85   1.929       .  S
O79         C100   1.271       .  A
O80        Ni103   1.926       .  S
O80          C89   1.272       .  A
O81         Ni85   1.895       .  S
O81        Ni103   1.908       .  S
O81         Ni97   1.909       .  S
O81         H104   0.966       .  S
C82          O99   1.277       .  A
C82          O91   1.275       .  A
C82        C5249   1.467       .  S
O83        Ni102   1.919       .  S
O83          C89   1.269       .  A
O84        Ni102   1.910       .  S
O84          C86   1.270       .  A
Ni85         O88   1.916       .  S
Ni85         O90   1.901       .  S
C86          O96   1.269       .  A
C86        C5376   1.483       .  S
O87        Ni103   1.925       .  S
O87          C93   1.280       .  A
O88          C93   1.277       .  A
C89        C5169   1.486       .  S
O90          C92   1.269       .  A
O91        Ni102   1.917       .  S
C92          O98   1.276       .  A
C92        C5149   1.487       .  S
C93        C5269   1.481   1_556  S
H94          O95   0.966       .  S
O95        Ni103   1.919       .  S
O95         Ni97   1.909       .  S
O95        Ni102   1.907       .  S
O96         Ni97   1.921       .  S
Ni97        O101   1.912       .  S
Ni97         O99   1.920       .  S
O98        Ni103   1.938       .  S
C100        O101   1.269       .  A
C100       C5189   1.492       .  S
O105       Ni111   1.930       .  S
O105        C126   1.273       .  A
O106       Ni129   1.928       .  S
O106        C115   1.267       .  A
O107       Ni111   1.901       .  S
O107       Ni129   1.904       .  S
O107       Ni123   1.919       .  S
O107        H130   0.967       .  S
C108        O125   1.283       .  A
C108        O117   1.276       .  A
C108       C5116   1.485       .  S
O109       Ni128   1.895       .  S
O109        C115   1.261       .  A
O110       Ni128   1.902       .  S
O110        C112   1.266       .  A
Ni111       O114   1.925       .  S
Ni111       O116   1.911       .  S
C112        O122   1.273       .  A
C112       C5129   1.487       .  S
O113       Ni129   1.923       .  S
O113        C119   1.280       .  A
O114        C119   1.279       .  A
C115       C5069   1.477       .  S
O116        C118   1.269       .  A
O117       Ni128   1.906       .  S
C118        O124   1.270       .  A
C118       C5049   1.481       .  S
C119       C5089   1.493       .  S
H120        O121   0.968       .  S
O121       Ni129   1.929       .  S
O121       Ni123   1.893       .  S
O121       Ni128   1.896       .  S
O122       Ni123   1.933       .  S
Ni123       O127   1.907       .  S
Ni123       O125   1.937       .  S
O124       Ni129   1.916       .  S
C126        O127   1.270       .  A
C126       C5476   1.489       .  S
O131       Ni137   1.934       .  S
O131        C152   1.273       .  A
O132       Ni155   1.930       .  S
O132        C141   1.274       .  A
O133       Ni137   1.895       .  S
O133       Ni155   1.907       .  S
O133       Ni149   1.912       .  S
O133        H156   0.967       .  S
C134        O151   1.280       .  A
C134        O143   1.276       .  A
C134       C5096   1.478       .  S
O135       Ni154   1.915       .  S
O135        C141   1.270       .  A
O136       Ni154   1.917       .  S
O136        C138   1.270       .  A
Ni137       O140   1.919       .  S
Ni137       O142   1.905       .  S
C138        O148   1.270       .  A
C138       C5029   1.488       .  S
O139       Ni155   1.924       .  S
O139        C145   1.280       .  A
O140        C145   1.278       .  A
C141       C5009   1.487       .  S
O142        C144   1.270       .  A
O143       Ni154   1.914       .  S
C144        O150   1.277       .  A
C144       C4989   1.489       .  S
C145       C5109   1.479   1_556  S
H146        O147   0.967       .  S
O147       Ni155   1.918       .  S
O147       Ni149   1.899       .  S
O147       Ni154   1.900       .  S
O148       Ni149   1.928       .  S
Ni149       O153   1.905       .  S
Ni149       O151   1.928       .  S
O150       Ni155   1.938       .  S
C152        O153   1.268       .  A
C152       C5356   1.490       .  S
O157       Ni163   1.923       .  S
O157        C178   1.271       .  A
O158       Ni181   1.930       .  S
O158        C167   1.272       .  A
O159       Ni163   1.898       .  S
O159       Ni181   1.911       .  S
O159       Ni175   1.919       .  S
O159        H182   0.967       .  S
C160        O177   1.284       .  A
C160        O169   1.275       .  A
C160       C4969   1.478       .  S
O161       Ni180   1.908       .  S
O161        C167   1.266       .  A
O162       Ni180   1.914       .  S
O162        C164   1.269       .  A
Ni163       O166   1.916       .  S
Ni163       O168   1.906       .  S
C164        O174   1.270       .  A
C164       C5136   1.478       .  S
O165       Ni181   1.923       .  S
O165        C171   1.279       .  A
O166        C171   1.276       .  A
C167       C4929   1.489       .  S
O168        C170   1.269       .  A
O169       Ni180   1.902       .  S
C170        O176   1.276       .  A
C170       C4909   1.486       .  S
C171       C4949   1.482       .  S
H172        O173   0.967       .  S
O173       Ni181   1.920       .  S
O173       Ni175   1.898       .  S
O173       Ni180   1.900       .  S
O174       Ni175   1.928       .  S
Ni175       O179   1.915       .  S
Ni175       O177   1.940       .  S
O176       Ni181   1.937       .  S
C178        O179   1.271       .  A
C178       C5296   1.482       .  S
O183       Ni189   1.935       .  S
O183        C204   1.275       .  A
O184       Ni207   1.925       .  S
O184        C193   1.270       .  A
O185       Ni189   1.897       .  S
O185       Ni207   1.906       .  S
O185       Ni201   1.915       .  S
O185        H208   0.967       .  S
C186        O203   1.282       .  A
C186        O195   1.277       .  A
C186       C4956   1.487       .  S
O187       Ni206   1.910       .  S
O187        C193   1.265       .  A
O188       Ni206   1.902       .  S
O188        C190   1.266       .  A
Ni189       O192   1.925       .  S
Ni189       O194   1.911       .  S
C190        O200   1.274       .  A
C190       C5036   1.501       .  S
O191       Ni207   1.913       .  S
O191        C197   1.276       .  A
O192        C197   1.279       .  A
C193       C4896   1.486       .  S
O194        C196   1.270       .  A
O195       Ni206   1.912       .  S
C196        O202   1.277       .  A
C196       C4876   1.500       .  S
C197       C4976   1.479       .  S
H198        O199   0.968       .  S
O199       Ni207   1.913       .  S
O199       Ni201   1.895       .  S
O199       Ni206   1.894       .  S
O200       Ni201   1.943       .  S
Ni201       O205   1.910       .  S
Ni201       O203   1.928       .  S
O202       Ni207   1.941       .  S
C204        O205   1.270       .  A
C204       C5196   1.493       .  S
O209       Ni215   1.922       .  S
O209        C230   1.269       .  A
O210       Ni233   1.914       .  S
O210        C219   1.271       .  A
O211       Ni215   1.894       .  S
O211       Ni233   1.902   1_545  S
O211       Ni227   1.917       .  S
O211        H234   0.967       .  S
C212        O229   1.277   1_565  A
C212        O221   1.279       .  A
C212       C4796   1.491   1_565  S
O213       Ni232   1.927       .  S
O213        C219   1.272       .  A
O214       Ni232   1.906       .  S
O214        C216   1.267       .  A
Ni215       O218   1.919       .  S
Ni215       O220   1.903       .  S
C216        O226   1.272   1_565  A
C216       C4849   1.481   1_565  S
O217       Ni233   1.928       .  S
O217        C223   1.280   1_565  A
O218        C223   1.277       .  A
C219       C5076   1.481       .  S
O220        C222   1.268       .  A
O221       Ni232   1.932       .  S
C222        O228   1.275       .  A
C222       C4776   1.495       .  S
C223       C4809   1.486       .  S
H224        O225   0.971       .  S
O225       Ni233   1.910       .  S
O225       Ni227   1.907   1_565  S
O225       Ni232   1.900       .  S
O226       Ni227   1.936       .  S
Ni227       O231   1.922       .  S
Ni227       O229   1.913       .  S
O228       Ni233   1.935   1_545  S
C230        O231   1.271       .  A
C230       C4829   1.492       .  S
O235       Ni241   1.931       .  S
O235        C256   1.274   1_556  A
O236       Ni259   1.922       .  S
O236        C245   1.271       .  A
O237       Ni241   1.895       .  S
O237       Ni259   1.900   1_545  S
O237       Ni253   1.920   1_556  S
O237        H260   0.966       .  S
C238        O255   1.282       .  A
C238        O247   1.279   1_545  A
C238       C4816   1.495       .  S
O239       Ni258   1.925   1_556  S
O239        C245   1.271       .  A
O240       Ni258   1.910       .  S
O240        C242   1.269   1_565  A
Ni241       O244   1.923       .  S
Ni241       O246   1.911       .  S
C242        O252   1.272       .  A
C242       C4756   1.493       .  S
O243       Ni259   1.924       .  S
O243        C249   1.279   1_565  A
O244        C249   1.278       .  A
C245       C5016   1.492       .  S
O246        C248   1.270       .  A
O247       Ni258   1.925       .  S
C248        O254   1.273       .  A
C248       C4709   1.482       .  S
C249       C4789   1.485       .  S
H250        O251   0.967       .  S
O251       Ni259   1.908   1_554  S
O251       Ni253   1.899   1_565  S
O251       Ni258   1.893       .  S
O252       Ni253   1.936       .  S
Ni253       O257   1.915       .  S
Ni253       O255   1.926       .  S
O254       Ni259   1.926   1_545  S
C256        O257   1.272       .  A
C256       C4736   1.492       .  S
O261       Ni267   1.925       .  S
O261        C282   1.269       .  A
O262       Ni285   1.927       .  S
O262        C271   1.271       .  A
O263       Ni267   1.904       .  S
O263       Ni285   1.909   1_545  S
O263       Ni279   1.920       .  S
O263        H286   0.967       .  S
C264        O281   1.282   1_565  A
C264        O273   1.277       .  A
C264       C4656   1.485   1_554  S
O265       Ni284   1.912       .  S
O265        C271   1.266       .  A
O266       Ni284   1.900       .  S
O266        C268   1.267   1_565  A
Ni267       O270   1.917       .  S
Ni267       O272   1.905       .  S
C268        O278   1.272       .  A
C268       C4749   1.485       .  S
O269       Ni285   1.925   1_545  S
O269        C275   1.280       .  A
O270        C275   1.277       .  A
C271       C4936   1.483       .  S
O272        C274   1.269       .  A
O273       Ni284   1.914       .  S
C274        O280   1.271   1_545  A
C274       C4636   1.478       .  S
C275       C4669   1.490       .  S
H276        O277   0.974       .  S
O277       Ni285   1.915       .  S
O277       Ni279   1.898   1_565  S
O277       Ni284   1.895       .  S
O278       Ni279   1.937       .  S
Ni279       O283   1.907       .  S
Ni279       O281   1.932       .  S
O280       Ni285   1.922       .  S
C282        O283   1.269       .  A
C282       C4696   1.486       .  S
O287       Ni293   1.935       .  S
O287        C308   1.273       .  A
O288       Ni311   1.925       .  S
O288        C297   1.271       .  A
O289       Ni293   1.906       .  S
O289       Ni311   1.914   1_545  S
O289       Ni305   1.916       .  S
O289        H312   0.965       .  S
C290        O307   1.280       .  A
C290        O299   1.276   1_545  A
C290       C4676   1.473       .  S
O291       Ni310   1.909       .  S
O291        C297   1.266       .  A
O292       Ni310   1.907       .  S
O292        C294   1.268   1_565  A
Ni293       O296   1.925       .  S
Ni293       O298   1.906       .  S
C294        O304   1.272       .  A
C294       C4856   1.486       .  S
O295       Ni311   1.920       .  S
O295        C301   1.278   1_565  A
O296        C301   1.277       .  A
C297       C4889   1.485       .  S
O298        C300   1.269       .  A
O299       Ni310   1.911       .  S
C300        O306   1.273       .  A
C300       C4589   1.492       .  S
C301       C4649   1.483       .  S
H302        O303   0.966       .  S
O303       Ni311   1.916       .  S
O303       Ni305   1.898   1_565  S
O303       Ni310   1.900       .  S
O304       Ni305   1.932       .  S
Ni305       O309   1.905       .  S
Ni305       O307   1.928       .  S
O306       Ni311   1.931   1_545  S
C308        O309   1.268       .  A
C308       C4609   1.491       .  S
O313       Ni319   1.928       .  S
O313        C334   1.272       .  A
O314       Ni337   1.923       .  S
O314        C323   1.272       .  A
O315       Ni319   1.896       .  S
O315       Ni337   1.899       .  S
O315       Ni331   1.911       .  S
O315        H338   0.967       .  S
C316        O333   1.277       .  A
C316        O325   1.276       .  A
C316       C4529   1.484   1_554  S
O317       Ni336   1.921       .  S
O317        C323   1.270       .  A
O318       Ni336   1.909       .  S
O318        C320   1.270       .  A
Ni319       O322   1.915       .  S
Ni319       O324   1.912       .  S
C320        O330   1.274       .  A
C320       C4569   1.488       .  S
O321       Ni337   1.930       .  S
O321        C327   1.282       .  A
O322        C327   1.277       .  A
C323       C5409   1.477       .  S
O324        C326   1.269       .  A
O325       Ni336   1.920       .  S
C326        O332   1.273       .  A
C326       C4509   1.481       .  S
C327       C4549   1.479       .  S
H328        O329   0.975       .  S
O329       Ni337   1.913       .  S
O329       Ni331   1.906       .  S
O329       Ni336   1.898       .  S
O330       Ni331   1.940       .  S
Ni331       O335   1.914       .  S
Ni331       O333   1.916       .  S
O332       Ni337   1.930       .  S
C334        O335   1.271       .  A
C334       C4729   1.484       .  S
O339       Ni345   1.931       .  S
O339        C360   1.272       .  A
O340       Ni363   1.935       .  S
O340        C349   1.272       .  A
O341       Ni345   1.898       .  S
O341       Ni363   1.910       .  S
O341       Ni357   1.914       .  S
O341        H364   0.966       .  S
C342        O359   1.280       .  A
C342        O351   1.276       .  A
C342       C4556   1.486       .  S
O343       Ni362   1.915       .  S
O343        C349   1.267       .  A
O344       Ni362   1.905       .  S
O344        C346   1.269       .  A
Ni345       O348   1.917       .  S
Ni345       O350   1.908       .  S
C346        O356   1.272       .  A
C346       C4496   1.486       .  S
O347       Ni363   1.926       .  S
O347        C353   1.281       .  A
O348        C353   1.277       .  A
C349       C5336   1.490       .  S
O350        C352   1.270       .  A
O351       Ni362   1.913       .  S
C352        O358   1.274       .  A
C352       C4469   1.496       .  S
C353       C4536   1.488       .  S
H354        O355   0.967       .  S
O355       Ni363   1.920       .  S
O355       Ni357   1.908       .  S
O355       Ni362   1.900       .  S
O356       Ni357   1.935       .  S
Ni357       O361   1.919       .  S
Ni357       O359   1.926       .  S
O358       Ni363   1.933       .  S
C360        O361   1.270       .  A
C360       C4836   1.496       .  S
O365       Ni371   1.925       .  S
O365        C386   1.271       .  A
O366       Ni389   1.926       .  S
O366        C375   1.270       .  A
O367       Ni371   1.895       .  S
O367       Ni389   1.904       .  S
O367       Ni383   1.917       .  S
O367        H390   0.967       .  S
C368        O385   1.281       .  A
C368        O377   1.277       .  A
C368       C4436   1.487       .  S
O369       Ni388   1.911       .  S
O369        C375   1.266       .  A
O370       Ni388   1.904       .  S
O370        C372   1.268       .  A
Ni371       O374   1.917       .  S
Ni371       O376   1.903       .  S
C372        O382   1.272       .  A
C372       C4489   1.492       .  S
O373       Ni389   1.928       .  S
O373        C379   1.281       .  A
O374        C379   1.278       .  A
C375       C5236   1.486       .  S
O376        C378   1.268       .  A
O377       Ni388   1.918       .  S
C378        O384   1.273       .  A
C378       C4416   1.494       .  S
C379       C4449   1.478       .  S
H380        O381   0.968       .  S
O381       Ni389   1.923       .  S
O381       Ni383   1.901       .  S
O381       Ni388   1.900       .  S
O382       Ni383   1.933       .  S
Ni383       O387   1.919       .  S
Ni383       O385   1.927       .  S
O384       Ni389   1.930       .  S
C386        O387   1.271       .  A
C386       C4616   1.486       .  S
O391       Ni397   1.928       .  S
O391        C412   1.272   1_556  A
O392       Ni415   1.919       .  S
O392        C401   1.271       .  A
O393       Ni397   1.897       .  S
O393       Ni415   1.903       .  S
O393       Ni409   1.915   1_556  S
O393        H416   0.966       .  S
C394        O411   1.277       .  A
C394        O403   1.278       .  A
C394       C4456   1.477       .  S
O395       Ni414   1.923   1_556  S
O395        C401   1.270       .  A
O396       Ni414   1.904       .  S
O396        C398   1.269       .  A
Ni397       O400   1.922       .  S
Ni397       O402   1.904       .  S
C398        O408   1.274       .  A
C398       C4576   1.487       .  S
O399       Ni415   1.926       .  S
O399        C405   1.280       .  A
O400        C405   1.278       .  A
C401       C5176   1.491       .  S
O402        C404   1.269       .  A
O403       Ni414   1.924       .  S
C404        O410   1.271       .  A
C404       C4389   1.474       .  S
C405       C4429   1.481       .  S
H406        O407   0.967       .  S
O407       Ni415   1.911   1_554  S
O407       Ni409   1.901       .  S
O407       Ni414   1.896       .  S
O408       Ni409   1.938       .  S
Ni409       O413   1.909       .  S
Ni409       O411   1.916       .  S
O410       Ni415   1.923       .  S
C412        O413   1.270       .  A
C412       C4689   1.479       .  S
O417       Ni423   1.916       .  S
O417        C438   1.267       .  A
O418       Ni441   1.911       .  S
O418        C427   1.270       .  A
O419       Ni423   1.901       .  S
O419       Ni441   1.906       .  S
O419       Ni435   1.921       .  S
O419        H442   0.967       .  S
C420        O437   1.283       .  A
C420        O429   1.278       .  A
C420       C4329   1.480       .  S
O421       Ni440   1.929       .  S
O421        C427   1.273       .  A
O422       Ni440   1.910       .  S
O422        C424   1.270       .  A
Ni423       O426   1.922       .  S
Ni423       O428   1.903       .  S
C424        O434   1.276       .  A
C424       C4269   1.500       .  S
O425       Ni441   1.919       .  S
O425        C431   1.277       .  A
O426        C431   1.277       .  A
C427       C4349   1.489       .  S
O428        C430   1.267       .  A
O429       Ni440   1.912       .  S
C430        O436   1.275       .  A
C430       C4369   1.497       .  S
C431       C4316   1.487       .  S
H432        O433   0.967       .  S
O433       Ni441   1.908       .  S
O433       Ni435   1.903       .  S
O433       Ni440   1.891       .  S
O434       Ni435   1.939       .  S
Ni435       O439   1.934       .  S
Ni435       O437   1.932       .  S
O436       Ni441   1.944       .  S
C438        O439   1.273       .  A
C438       C4289   1.496       .  S
O443       Ni449   1.901       .  S
O443        C464   1.264       .  A
O444       Ni467   1.908       .  S
O444        C453   1.270       .  A
O445       Ni449   1.893       .  S
O445       Ni467   1.895       .  S
O445       Ni461   1.924       .  S
O445        H468   0.970       .  S
C446        O463   1.284       .  A
C446        O455   1.280       .  A
C446       C4309   1.488       .  S
O447       Ni466   1.925       .  S
O447        C453   1.272       .  A
O448       Ni466   1.903       .  S
O448        C450   1.268       .  A
Ni449       O452   1.915       .  S
Ni449       O454   1.901       .  S
C450        O460   1.274       .  A
C450       C4189   1.485       .  S
O451       Ni467   1.925       .  S
O451        C457   1.281       .  A
O452        C457   1.277       .  A
C453       C4229   1.476       .  S
O454        C456   1.266       .  A
O455       Ni466   1.919       .  S
C456        O462   1.273       .  A
C456       C4249   1.488       .  S
C457       C4336   1.485   1_556  S
H458        O459   0.967       .  S
O459       Ni467   1.915       .  S
O459       Ni461   1.896       .  S
O459       Ni466   1.887       .  S
O460       Ni461   1.937       .  S
Ni461       O465   1.925       .  S
Ni461       O463   1.934       .  S
O462       Ni467   1.938       .  S
C464        O465   1.270       .  A
C464       C4209   1.471       .  S
O469       Ni475   1.911   1_554  S
O469        C490   1.265       .  A
O470       Ni493   1.901       .  S
O470        C479   1.269       .  A
O471       Ni475   1.904       .  S
O471       Ni493   1.901       .  S
O471       Ni487   1.922   1_556  S
O471        H494   0.968       .  S
C472        O489   1.278       .  A
C472        O481   1.278       .  A
C472       C4156   1.494       .  S
O473       Ni492   1.942       .  S
O473        C479   1.276   1_554  A
O474       Ni492   1.914       .  S
O474        C476   1.270       .  A
Ni475       O478   1.917       .  S
Ni475       O480   1.902       .  S
C476        O486   1.270       .  A
C476       C5389   1.483       .  S
O477       Ni493   1.934       .  S
O477        C483   1.281       .  A
O478        C483   1.276       .  A
C479       C4176   1.487       .  S
O480        C482   1.267       .  A
O481       Ni492   1.932       .  S
C482        O488   1.272       .  A
C482       C4256   1.480       .  S
C483       C4129   1.486       .  S
H484        O485   0.964       .  S
O485       Ni493   1.914   1_554  S
O485       Ni487   1.909       .  S
O485       Ni492   1.905       .  S
O486       Ni487   1.926       .  S
Ni487       O491   1.916       .  S
Ni487       O489   1.918       .  S
O488       Ni493   1.933       .  S
C490        O491   1.267       .  A
C490       C4116   1.481       .  S
O495       Ni501   1.909       .  S
O495        C516   1.267       .  A
O496       Ni519   1.909       .  S
O496        C505   1.271       .  A
O497       Ni501   1.894       .  S
O497       Ni519   1.890       .  S
O497       Ni513   1.920       .  S
O497        H520   0.967       .  S
C498        O515   1.281       .  A
C498        O507   1.281       .  A
C498       C4136   1.495       .  S
O499       Ni518   1.932       .  S
O499        C505   1.274       .  A
O500       Ni518   1.916       .  S
O500        C502   1.270       .  A
Ni501       O504   1.910       .  S
Ni501       O506   1.914       .  S
C502        O512   1.273       .  A
C502       C5316   1.488       .  S
O503       Ni519   1.937       .  S
O503        C509   1.283       .  A
O504        C509   1.276       .  A
C505       C4089   1.491       .  S
O506        C508   1.268       .  A
O507       Ni518   1.932       .  S
C508        O514   1.274       .  A
C508       C4376   1.487       .  S
C509       C4149   1.481       .  S
H510        O511   0.967       .  S
O511       Ni519   1.914       .  S
O511       Ni513   1.901       .  S
O511       Ni518   1.898       .  S
O512       Ni513   1.932       .  S
Ni513       O517   1.921       .  S
Ni513       O515   1.921       .  S
O514       Ni519   1.940       .  S
C516        O517   1.271       .  A
C516       C4069   1.484       .  S
O521       Ni527   1.903   1_554  S
O521        C542   1.263       .  A
O522       Ni545   1.909       .  S
O522        C531   1.269       .  A
O523       Ni527   1.896       .  S
O523       Ni545   1.898       .  S
O523       Ni539   1.917   1_556  S
O523        H546   0.968       .  S
C524        O541   1.280       .  A
C524        O533   1.279       .  A
C524       C4029   1.483       .  S
O525       Ni544   1.923       .  S
O525        C531   1.270   1_554  A
O526       Ni544   1.906       .  S
O526        C528   1.268       .  A
Ni527       O530   1.909       .  S
Ni527       O532   1.900       .  S
C528        O538   1.273       .  A
C528       C3969   1.481       .  S
O529       Ni545   1.929       .  S
O529        C535   1.282       .  A
O530        C535   1.276       .  A
C531       C4236   1.485       .  S
O532        C534   1.266       .  A
O533       Ni544   1.922       .  S
C534        O540   1.270       .  A
C534       C4049   1.482       .  S
C535       C4016   1.481       .  S
H536        O537   0.965       .  S
O537       Ni545   1.920   1_554  S
O537       Ni539   1.902       .  S
O537       Ni544   1.897       .  S
O538       Ni539   1.925       .  S
Ni539       O543   1.926       .  S
Ni539       O541   1.922       .  S
O540       Ni545   1.931       .  S
C542        O543   1.269       .  A
C542       C3989   1.486       .  S
O547       Ni553   1.914       .  S
O547        C568   1.266       .  A
O548       Ni571   1.919       .  S
O548        C557   1.272       .  A
O549       Ni553   1.897       .  S
O549       Ni571   1.905       .  S
O549       Ni565   1.913       .  S
O549        H572   0.969       .  S
C550        O567   1.276       .  A
C550        O559   1.276       .  A
C550       C4009   1.481       .  S
O551       Ni570   1.924       .  S
O551        C557   1.270       .  A
O552       Ni570   1.899       .  S
O552        C554   1.267       .  A
Ni553       O556   1.907       .  S
Ni553       O558   1.903       .  S
C554        O564   1.274       .  A
C554       C3916   1.489       .  S
O555       Ni571   1.936       .  S
O555        C561   1.282       .  A
O556        C561   1.276       .  A
C557       C4356   1.492       .  S
O558        C560   1.267       .  A
O559       Ni570   1.922       .  S
C560        O566   1.271       .  A
C560       C3956   1.490       .  S
C561       C4036   1.482       .  S
H562        O563   0.967       .  S
O563       Ni571   1.916       .  S
O563       Ni565   1.916       .  S
O563       Ni570   1.897       .  S
O564       Ni565   1.940       .  S
Ni565       O569   1.929       .  S
Ni565       O567   1.914       .  S
O566       Ni571   1.928       .  S
C568        O569   1.270       .  A
C568       C3936   1.490       .  S
O573       Ni579   1.910       .  S
O573        C594   1.265       .  A
O574       Ni597   1.906       .  S
O574        C583   1.269       .  A
O575       Ni579   1.894       .  S
O575       Ni597   1.898       .  S
O575       Ni591   1.922       .  S
O575        H598   0.967       .  S
C576        O593   1.282       .  A
C576        O585   1.278       .  A
C576       C3896   1.483       .  S
O577       Ni596   1.931       .  S
O577        C583   1.274       .  A
O578       Ni596   1.911       .  S
O578        C580   1.270       .  A
Ni579       O582   1.910       .  S
Ni579       O584   1.902       .  S
C580        O590   1.274       .  A
C580       C4516   1.497       .  S
O581       Ni597   1.938       .  S
O581        C587   1.282       .  A
O582        C587   1.277       .  A
C583       C4096   1.477       .  S
O584        C586   1.267       .  A
O585       Ni596   1.919       .  S
C586        O592   1.270       .  A
C586       C3949   1.477       .  S
C587       C3876   1.482       .  S
H588        O589   0.967       .  S
O589       Ni597   1.911       .  S
O589       Ni591   1.902       .  S
O589       Ni596   1.894       .  S
O590       Ni591   1.929       .  S
Ni591       O595   1.934       .  S
Ni591       O593   1.924       .  S
O592       Ni597   1.928       .  S
C594        O595   1.273       .  A
C594       C3849   1.493       .  S
O599       Ni605   1.910       .  S
O599        C620   1.264       .  A
O600       Ni623   1.908       .  S
O600        C609   1.267       .  A
O601       Ni605   1.910       .  S
O601       Ni623   1.913       .  S
O601       Ni617   1.924       .  S
O601        H624   0.971       .  S
C602        O619   1.281       .  A
C602        O611   1.277       .  A
C602       C3869   1.483       .  S
O603       Ni622   1.932       .  S
O603        C609   1.272       .  A
O604       Ni622   1.908       .  S
O604        C606   1.269       .  A
Ni605       O608   1.914       .  S
Ni605       O610   1.895       .  S
C606        O616   1.274       .  A
C606       C4476   1.482       .  S
O607       Ni623   1.922       .  S
O607        C613   1.276       .  A
O608        C613   1.274       .  A
C609       C4169   1.489       .  S
O610        C612   1.266       .  A
O611       Ni622   1.918       .  S
C612        O618   1.272       .  A
C612       C4056   1.480       .  S
C613       C3889   1.478   1_556  S
H614        O615   0.967       .  S
O615       Ni623   1.914       .  S
O615       Ni617   1.911       .  S
O615       Ni622   1.904       .  S
O616       Ni617   1.929       .  S
Ni617       O621   1.933       .  S
Ni617       O619   1.926       .  S
O618       Ni623   1.936       .  S
C620        O621   1.272       .  A
C620       C3836   1.483       .  S
O625       Ni631   1.925       .  S
O625        C646   1.272       .  A
O626       Ni649   1.913       .  S
O626        C635   1.271       .  A
O627       Ni631   1.897       .  S
O627       Ni649   1.904       .  S
O627       Ni643   1.915       .  S
O627        H650   0.968       .  S
C628        O645   1.279       .  A
C628        O637   1.278       .  A
C628       C3749   1.483       .  S
O629       Ni648   1.923       .  S
O629        C635   1.271       .  A
O630       Ni648   1.908       .  S
O630        C632   1.269       .  A
Ni631       O634   1.919       .  S
Ni631       O636   1.909       .  S
C632        O642   1.273       .  A
C632       C3729   1.495       .  S
O633       Ni649   1.928       .  S
O633        C639   1.280       .  A
O634        C639   1.277       .  A
C635       C3796   1.486       .  S
O636        C638   1.270       .  A
O637       Ni648   1.920       .  S
C638        O644   1.273       .  A
C638       C3816   1.498       .  S
C639       C3769   1.490       .  S
H640        O641   0.967       .  S
O641       Ni649   1.918       .  S
O641       Ni643   1.896       .  S
O641       Ni648   1.896       .  S
O642       Ni643   1.929       .  S
Ni643       O647   1.916       .  S
Ni643       O645   1.922       .  S
O644       Ni649   1.935       .  S
C646        O647   1.269       .  A
C646       C4296   1.482       .  S
O651       Ni657   1.919       .  S
O651        C672   1.266       .  A
O652       Ni675   1.906       .  S
O652        C661   1.267       .  A
O653       Ni657   1.911       .  S
O653       Ni675   1.909       .  S
O653       Ni669   1.915       .  S
O653        H676   0.969       .  S
C654        O671   1.277       .  A
C654        O663   1.278       .  A
C654       C3776   1.477       .  S
O655       Ni674   1.931       .  S
O655        C661   1.272       .  A
O656       Ni674   1.907       .  S
O656        C658   1.269       .  A
Ni657       O660   1.921       .  S
Ni657       O662   1.898       .  S
C658        O668   1.270       .  A
C658       C3669   1.478       .  S
O659       Ni675   1.917       .  S
O659        C665   1.275       .  A
O660        C665   1.275       .  A
C661       C3689   1.490       .  S
O662        C664   1.266       .  A
O663       Ni674   1.925       .  S
C664        O670   1.270       .  A
C664       C3709   1.475       .  S
C665       C3756   1.490       .  S
H666        O667   0.967       .  S
O667       Ni675   1.910       .  S
O667       Ni669   1.904       .  S
O667       Ni674   1.905       .  S
O668       Ni669   1.918       .  S
Ni669       O673   1.911       .  S
Ni669       O671   1.915       .  S
O670       Ni675   1.925       .  S
C672        O673   1.267       .  A
C672       C4216   1.482       .  S
O677       Ni683   1.908       .  S
O677        C698   1.266       .  A
O678       Ni701   1.893       .  S
O678        C687   1.266       .  A
O679       Ni683   1.890       .  S
O679       Ni701   1.888       .  S
O679       Ni695   1.923       .  S
O679        H702   0.969       .  S
C680        O697   1.283       .  A
C680        O689   1.279       .  A
C680       C3609   1.490   1_554  S
O681       Ni700   1.931       .  S
O681        C687   1.274       .  A
O682       Ni700   1.909       .  S
O682        C684   1.269       .  A
Ni683       O686   1.917       .  S
Ni683       O688   1.908       .  S
C684        O694   1.273       .  A
C684       C4996   1.496       .  S
O685       Ni701   1.929       .  S
O685        C691   1.279       .  A
O686        C691   1.277       .  A
C687       C3649   1.478       .  S
O688        C690   1.268       .  A
O689       Ni700   1.923       .  S
C690        O696   1.271       .  A
C690       C3809   1.484       .  S
C691       C3636   1.477       .  S
H692        O693   0.968       .  S
O693       Ni701   1.905       .  S
O693       Ni695   1.897       .  S
O693       Ni700   1.888       .  S
O694       Ni695   1.932       .  S
Ni695       O699   1.922       .  S
Ni695       O697   1.925       .  S
O696       Ni701   1.931       .  S
C698        O699   1.272       .  A
C698       C4109   1.484       .  S
O703       Ni709   1.914       .  S
O703        C724   1.267       .  A
O704       Ni727   1.915       .  S
O704        C713   1.269       .  A
O705       Ni709   1.898       .  S
O705       Ni727   1.900       .  S
O705       Ni721   1.924       .  S
O705        H728   0.968       .  S
C706        O723   1.283       .  A
C706        O715   1.277       .  A
C706       C3629   1.493       .  S
O707       Ni726   1.921       .  S
O707        C713   1.268       .  A
O708       Ni726   1.897       .  S
O708        C710   1.267       .  A
Ni709       O712   1.925       .  S
Ni709       O714   1.900       .  S
C710        O720   1.272       .  A
C710       C5056   1.491       .  S
O711       Ni727   1.915       .  S
O711        C717   1.278       .  A
O712        C717   1.278       .  A
C713       C3596   1.488       .  S
O714        C716   1.267       .  A
O715       Ni726   1.912       .  S
C716        O722   1.271       .  A
C716       C3716   1.476       .  S
C717       C3616   1.477       .  S
H718        O719   0.967       .  S
O719       Ni727   1.912       .  S
O719       Ni721   1.904       .  S
O719       Ni726   1.890       .  S
O720       Ni721   1.929       .  S
Ni721       O725   1.924       .  S
Ni721       O723   1.937       .  S
O722       Ni727   1.927       .  S
C724        O725   1.271       .  A
C724       C4076   1.484       .  S
O729       Ni735   1.906       .  S
O729        C750   1.264       .  A
O730       Ni753   1.910       .  S
O730        C739   1.270       .  A
O731       Ni735   1.892       .  S
O731       Ni753   1.896   1_545  S
O731       Ni747   1.924       .  S
O731        H754   0.967       .  S
C732        O749   1.282   1_566  A
C732        O741   1.278   1_556  A
C732       C3529   1.492       .  S
O733       Ni752   1.923       .  S
O733        C739   1.271       .  A
O734       Ni752   1.904       .  S
O734        C736   1.269       .  A
Ni735       O738   1.910       .  S
Ni735       O740   1.899       .  S
C736        O746   1.273   1_565  A
C736       C3509   1.494       .  S
O737       Ni753   1.933       .  S
O737        C743   1.282   1_565  A
O738        C743   1.277       .  A
C739       C3789   1.481       .  S
O740        C742   1.267       .  A
O741       Ni752   1.919       .  S
C742        O748   1.272   1_545  A
C742       C3576   1.488       .  S
C743       C3549   1.481       .  S
H744        O745   0.967       .  S
O745       Ni753   1.919       .  S
O745       Ni747   1.901   1_565  S
O745       Ni752   1.891       .  S
O746       Ni747   1.930       .  S
Ni747       O751   1.925       .  S
Ni747       O749   1.933       .  S
O748       Ni753   1.931       .  S
C750        O751   1.270       .  A
C750       C3996   1.486       .  S
O755       Ni761   1.911       .  S
O755        C776   1.265       .  A
O756       Ni779   1.912       .  S
O756        C765   1.271       .  A
O757       Ni761   1.900       .  S
O757       Ni779   1.908   1_545  S
O757       Ni773   1.913       .  S
O757        H780   0.973       .  S
C758        O775   1.277   1_565  A
C758        O767   1.278       .  A
C758       C3556   1.482   1_565  S
O759       Ni778   1.930       .  S
O759        C765   1.273       .  A
O760       Ni778   1.909       .  S
O760        C762   1.269       .  A
Ni761       O764   1.915       .  S
Ni761       O766   1.893       .  S
C762        O772   1.272   1_565  A
C762       C3469   1.479       .  S
O763       Ni779   1.932       .  S
O763        C769   1.281   1_565  A
O764        C769   1.275       .  A
C765       C3696   1.492       .  S
O766        C768   1.265       .  A
O767       Ni778   1.922       .  S
C768        O774   1.270   1_545  A
C768       C3489   1.469       .  S
C769       C3536   1.486       .  S
H770        O771   0.966       .  S
O771       Ni779   1.919       .  S
O771       Ni773   1.903   1_565  S
O771       Ni778   1.900       .  S
O772       Ni773   1.918       .  S
Ni773       O777   1.925       .  S
Ni773       O775   1.919       .  S
O774       Ni779   1.928       .  S
C776        O777   1.269       .  A
C776       C3929   1.481       .  S
O781       Ni787   1.912       .  S
O781        C802   1.266       .  A
O782       Ni805   1.902       .  S
O782        C791   1.268       .  A
O783       Ni787   1.891       .  S
O783       Ni805   1.896   1_545  S
O783       Ni799   1.919       .  S
O783        H806   0.968       .  S
C784        O801   1.280       .  A
C784        O793   1.279   1_545  A
C784       C3429   1.478       .  S
O785       Ni804   1.926       .  S
O785        C791   1.272       .  A
O786       Ni804   1.907       .  S
O786        C788   1.267   1_565  A
Ni787       O790   1.916       .  S
Ni787       O792   1.905       .  S
C788        O798   1.273       .  A
C788       C4769   1.485       .  S
O789       Ni805   1.933       .  S
O789        C795   1.280   1_565  A
O790        C795   1.277       .  A
C791       C3656   1.469       .  S
O792        C794   1.268       .  A
O793       Ni804   1.926       .  S
C794        O800   1.273   1_545  A
C794       C3569   1.491       .  S
C795       C3456   1.473       .  S
H796        O797   0.967       .  S
O797       Ni805   1.906       .  S
O797       Ni799   1.902   1_565  S
O797       Ni804   1.896       .  S
O798       Ni799   1.935       .  S
Ni799       O803   1.929       .  S
Ni799       O801   1.916       .  S
O800       Ni805   1.933       .  S
C802        O803   1.272       .  A
C802       C3856   1.487       .  S
O807       Ni813   1.921       .  S
O807        C828   1.268       .  A
O808       Ni831   1.914       .  S
O808        C817   1.269       .  A
O809       Ni813   1.899       .  S
O809       Ni831   1.902   1_545  S
O809       Ni825   1.916       .  S
O809        H832   0.973       .  S
C810        O827   1.281   1_565  A
C810        O819   1.277       .  A
C810       C3449   1.491       .  S
O811       Ni830   1.921       .  S
O811        C817   1.269       .  A
O812       Ni830   1.898       .  S
O812        C814   1.267       .  A
Ni813       O816   1.920       .  S
Ni813       O818   1.897       .  S
C814        O824   1.275   1_565  A
C814       C4716   1.490   1_565  S
O815       Ni831   1.923       .  S
O815        C821   1.279   1_565  A
O816        C821   1.278       .  A
C817       C3589   1.486       .  S
O818        C820   1.266       .  A
O819       Ni830   1.913       .  S
C820        O826   1.270   1_545  A
C820       C3496   1.484       .  S
C821       C3436   1.489       .  S
H822        O823   0.966       .  S
O823       Ni831   1.914       .  S
O823       Ni825   1.904   1_565  S
O823       Ni830   1.895       .  S
O824       Ni825   1.933       .  S
Ni825       O829   1.927       .  S
Ni825       O827   1.928       .  S
O826       Ni831   1.926       .  S
C828        O829   1.273       .  A
C828       C3829   1.484       .  S
O833       Ni839   1.925       .  S
O833        C854   1.270       .  A
O834       Ni857   1.921       .  S
O834        C843   1.268       .  A
O835       Ni839   1.904       .  S
O835       Ni857   1.903   1_545  S
O835       Ni851   1.917       .  S
O835        H858   0.967       .  S
C836        O853   1.279       .  A
C836        O845   1.276   1_545  A
C836       C3376   1.487       .  S
O837       Ni856   1.908       .  S
O837        C843   1.265       .  A
O838       Ni856   1.899       .  S
O838        C840   1.267   1_565  A
Ni839       O842   1.920       .  S
Ni839       O844   1.911       .  S
C840        O850   1.270       .  A
C840       C3416   1.477       .  S
O841       Ni857   1.922   1_545  S
O841        C847   1.279       .  A
O842        C847   1.277       .  A
C843       C3329   1.476       .  S
O844        C846   1.269       .  A
O845       Ni856   1.916       .  S
C846        O852   1.269       .  A
C846       C3316   1.485       .  S
C847       C3356   1.480       .  S
H848        O849   0.967       .  S
O849       Ni857   1.918       .  S
O849       Ni851   1.900   1_565  S
O849       Ni856   1.902       .  S
O850       Ni851   1.922       .  S
Ni851       O855   1.911       .  S
Ni851       O853   1.921       .  S
O852       Ni857   1.915   1_545  S
C854        O855   1.268       .  A
C854       C3396   1.489       .  S
O859       Ni865   1.926       .  S
O859        C880   1.273       .  A
O860       Ni883   1.923       .  S
O860        C869   1.270       .  A
O861       Ni865   1.893       .  S
O861       Ni883   1.899   1_545  S
O861       Ni877   1.918       .  S
O861        H884   0.967       .  S
C862        O879   1.283       .  A
C862        O871   1.277   1_545  A
C862       C3349   1.488       .  S
O863       Ni882   1.912       .  S
O863        C869   1.267       .  A
O864       Ni882   1.905       .  S
O864        C866   1.268       .  A
Ni865       O868   1.921       .  S
Ni865       O870   1.911       .  S
C866        O876   1.276   1_565  A
C866       C3296   1.489       .  S
O867       Ni883   1.921   1_545  S
O867        C873   1.280       .  A
O868        C873   1.279       .  A
C869       C3249   1.489       .  S
O870        C872   1.270       .  A
O871       Ni882   1.910       .  S
C872        O878   1.274       .  A
C872       C3236   1.497       .  S
C873       C3369   1.480       .  S
H874        O875   0.968       .  S
O875       Ni883   1.915       .  S
O875       Ni877   1.897   1_565  S
O875       Ni882   1.891       .  S
O876       Ni877   1.943       .  S
Ni877       O881   1.918       .  S
Ni877       O879   1.935       .  S
O878       Ni883   1.930   1_545  S
C880        O881   1.274       .  A
C880       C3269   1.493       .  S
O885       Ni891   1.926       .  S
O885        C906   1.271       .  A
O886       Ni909   1.939       .  S
O886        C895   1.273       .  A
O887       Ni891   1.898       .  S
O887       Ni909   1.910   1_545  S
O887       Ni903   1.923       .  S
O887        H910   0.967       .  S
C888        O905   1.283       .  A
C888        O897   1.280   1_545  A
C888       C3189   1.483       .  S
O889       Ni908   1.911       .  S
O889        C895   1.265       .  A
O890       Ni908   1.897       .  S
O890        C892   1.264   1_565  A
Ni891       O894   1.917       .  S
Ni891       O896   1.905       .  S
C892        O902   1.269       .  A
C892       C3409   1.472       .  S
O893       Ni909   1.931   1_545  S
O893        C899   1.282       .  A
O894        C899   1.278       .  A
C895       C3156   1.492       .  S
O896        C898   1.270       .  A
O897       Ni908   1.927       .  S
C898        O904   1.272       .  A
C898       C3476   1.478       .  S
C899       C3176   1.490       .  S
H900        O901   0.972       .  S
O901       Ni909   1.920       .  S
O901       Ni903   1.901   1_565  S
O901       Ni908   1.897       .  S
O902       Ni903   1.924       .  S
Ni903       O907   1.925       .  S
Ni903       O905   1.927       .  S
O904       Ni909   1.923   1_545  S
C906        O907   1.271       .  A
C906       C3216   1.496       .  S
O911       Ni917   1.940       .  S
O911        C932   1.277       .  A
O912       Ni935   1.922       .  S
O912        C921   1.270       .  A
O913       Ni917   1.900       .  S
O913       Ni935   1.902   1_545  S
O913       Ni929   1.909       .  S
O913        H936   0.967       .  S
C914        O931   1.280       .  A
C914        O923   1.277   1_545  A
C914       C3169   1.484       .  S
O915       Ni934   1.906       .  S
O915        C921   1.265       .  A
O916       Ni934   1.909       .  S
O916        C918   1.268       .  A
Ni917       O920   1.936       .  S
Ni917       O922   1.916       .  S
C918        O928   1.276   1_565  A
C918       C3289   1.501       .  S
O919       Ni935   1.922       .  S
O919        C925   1.281   1_565  A
O920        C925   1.281       .  A
C921       C3109   1.479       .  S
O922        C924   1.269       .  A
O923       Ni934   1.918       .  S
C924        O930   1.271       .  A
C924       C3516   1.482       .  S
C925       C3196   1.491   1_556  S
H926        O927   0.967       .  S
O927       Ni935   1.925       .  S
O927       Ni929   1.889   1_565  S
O927       Ni934   1.896       .  S
O928       Ni929   1.941       .  S
Ni929       O933   1.896       .  S
Ni929       O931   1.932       .  S
O930       Ni935   1.927   1_545  S
C932        O933   1.268       .  A
C932       C3129   1.485       .  S
O937       Ni943   1.935       .  S
O937        C958   1.273       .  A
O938       Ni961   1.920       .  S
O938        C947   1.269       .  A
O939       Ni943   1.902       .  S
O939       Ni961   1.913       .  S
O939       Ni955   1.915       .  S
O939        H962   0.967       .  S
C940        O957   1.275       .  A
C940        O949   1.275       .  A
C940       C3076   1.484       .  S
O941       Ni960   1.920       .  S
O941        C947   1.268       .  A
O942       Ni960   1.901       .  S
O942        C944   1.268       .  A
Ni943       O946   1.922       .  S
Ni943       O948   1.905       .  S
C944        O954   1.275       .  A
C944       C3096   1.492       .  S
O945       Ni961   1.928       .  S
O945        C951   1.278       .  A
O946        C951   1.278       .  A
C947       C3029   1.474       .  S
O948        C950   1.269       .  A
O949       Ni960   1.922       .  S
C950        O956   1.271       .  A
C950       C3976   1.486       .  S
C951       C3049   1.491       .  S
H952        O953   0.967       .  S
O953       Ni961   1.913       .  S
O953       Ni955   1.909       .  S
O953       Ni960   1.902       .  S
O954       Ni955   1.943       .  S
Ni955       O959   1.922       .  S
Ni955       O957   1.913       .  S
O956       Ni961   1.922       .  S
C958        O959   1.271       .  A
C958       C3209   1.496       .  S
O963       Ni969   1.926       .  S
O963        C984   1.272       .  A
O964       Ni987   1.921       .  S
O964        C973   1.270       .  A
O965       Ni969   1.899       .  S
O965       Ni987   1.904       .  S
O965       Ni981   1.918       .  S
O965        H988   0.967       .  S
C966        O983   1.283       .  A
C966        O975   1.276       .  A
C966       C3056   1.481       .  S
O967       Ni986   1.918       .  S
O967        C973   1.268       .  A
O968       Ni986   1.910       .  S
O968        C970   1.269       .  A
Ni969       O972   1.926       .  S
Ni969       O974   1.906       .  S
C970        O980   1.270       .  A
C970       C3016   1.486       .  S
O971       Ni987   1.914       .  S
O971        C977   1.276       .  A
O972        C977   1.278       .  A
C973       C2996   1.490       .  S
O974        C976   1.268       .  A
O975       Ni986   1.914       .  S
C976        O982   1.275       .  A
C976       C3909   1.479       .  S
C977       C3069   1.480       .  S
H978        O979   0.967       .  S
O979       Ni987   1.916       .  S
O979       Ni981   1.897       .  S
O979       Ni986   1.898       .  S
O980       Ni981   1.924       .  S
Ni981       O985   1.906       .  S
Ni981       O983   1.938       .  S
O982       Ni987   1.933       .  S
C984        O985   1.270       .  A
C984       C3136   1.478       .  S
O989       Ni995   1.933       .  S
O989       C1010   1.273       .  A
O990      Ni1013   1.930       .  S
O990        C999   1.274       .  A
O991       Ni995   1.893       .  S
O991      Ni1013   1.909       .  S
O991      Ni1007   1.910       .  S
O991       H1014   0.967       .  S
C992       O1009   1.281       .  A
C992       O1001   1.277       .  A
C992       C2976   1.484       .  S
O993      Ni1012   1.914       .  S
O993        C999   1.268       .  A
O994      Ni1012   1.912       .  S
O994        C996   1.269       .  A
Ni995       O998   1.912       .  S
Ni995      O1000   1.909       .  S
C996       O1006   1.270       .  A
C996       C3089   1.487       .  S
O997      Ni1013   1.927       .  S
O997       C1003   1.281       .  A
O998       C1003   1.276       .  A
C999       C2929   1.493       .  S
O1000      C1002   1.272       .  A
O1001     Ni1012   1.913       .  S
C1002      O1008   1.278       .  A
C1002      C2916   1.498       .  S
C1003      C2956   1.481       .  S
H1004      O1005   0.967       .  S
O1005     Ni1013   1.919       .  S
O1005     Ni1007   1.896       .  S
O1005     Ni1012   1.895       .  S
O1006     Ni1007   1.928       .  S
Ni1007     O1011   1.901       .  S
Ni1007     O1009   1.933       .  S
O1008     Ni1013   1.948       .  S
C1010      O1011   1.267       .  A
C1010      C3389   1.483       .  S
O1015     Ni1021   1.934       .  S
O1015      C1036   1.273       .  A
O1016     Ni1039   1.931       .  S
O1016      C1025   1.272       .  A
O1017     Ni1021   1.901       .  S
O1017     Ni1039   1.915       .  S
O1017     Ni1033   1.914       .  S
O1017      H1040   0.967       .  S
C1018      O1035   1.281       .  A
C1018      O1027   1.276       .  A
C1018      C2949   1.481       .  S
O1019     Ni1038   1.910       .  S
O1019      C1025   1.265       .  A
O1020     Ni1038   1.904       .  S
O1020      C1022   1.267       .  A
Ni1021     O1024   1.920       .  S
Ni1021     O1026   1.909       .  S
C1022      O1032   1.271       .  A
C1022      C3009   1.491       .  S
O1023     Ni1039   1.924       .  S
O1023      C1029   1.279       .  A
O1024      C1029   1.276       .  A
C1025      C2889   1.487       .  S
O1026      C1028   1.270       .  A
O1027     Ni1038   1.911       .  S
C1028      O1034   1.274       .  A
C1028      C2876   1.492       .  S
C1029      C2969   1.489   1_556  S
H1030      O1031   0.968       .  S
O1031     Ni1039   1.917       .  S
O1031     Ni1033   1.898       .  S
O1031     Ni1038   1.899       .  S
O1032     Ni1033   1.931       .  S
Ni1033     O1037   1.911       .  S
Ni1033     O1035   1.929       .  S
O1034     Ni1039   1.930       .  S
C1036      O1037   1.269       .  A
C1036      C3276   1.492       .  S
O1041     Ni1047   1.938       .  S
O1041      C1062   1.274       .  A
O1042     Ni1065   1.937       .  S
O1042      C1051   1.271       .  A
O1043     Ni1047   1.906       .  S
O1043     Ni1065   1.913       .  S
O1043     Ni1059   1.914       .  S
O1043      H1066   0.967       .  S
C1044      O1061   1.279       .  A
C1044      O1053   1.277       .  A
C1044      C2796   1.493       .  S
O1045     Ni1064   1.901       .  S
O1045      C1051   1.261       .  A
O1046     Ni1064   1.895       .  S
O1046      C1048   1.266       .  A
Ni1047     O1050   1.926       .  S
Ni1047     O1052   1.911       .  S
C1048      O1058   1.273       .  A
C1048      C2856   1.478       .  S
O1049     Ni1065   1.932       .  S
O1049      C1055   1.284       .  A
O1050      C1055   1.278       .  A
C1051      C3149   1.492       .  S
O1052      C1054   1.269       .  A
O1053     Ni1064   1.916       .  S
C1054      O1060   1.269       .  A
C1054      C3736   1.485       .  S
C1055      C2809   1.497       .  S
H1056      O1057   0.967       .  S
O1057     Ni1065   1.931       .  S
O1057     Ni1059   1.901       .  S
O1057     Ni1064   1.903       .  S
O1058     Ni1059   1.931       .  S
Ni1059     O1063   1.910       .  S
Ni1059     O1061   1.925       .  S
O1060     Ni1065   1.916       .  S
C1062      O1063   1.269       .  A
C1062      C2829   1.489       .  S
O1067     Ni1073   1.932       .  S
O1067      C1088   1.271   1_556  A
O1068     Ni1091   1.918       .  S
O1068      C1077   1.272       .  A
O1069     Ni1073   1.902       .  S
O1069     Ni1091   1.904       .  S
O1069     Ni1085   1.912   1_556  S
O1069      H1092   0.967       .  S
C1070      O1087   1.272       .  A
C1070      O1079   1.273       .  A
C1070      C2816   1.476       .  S
O1071     Ni1090   1.915   1_556  S
O1071      C1077   1.270       .  A
O1072     Ni1090   1.899       .  S
O1072      C1074   1.267       .  A
Ni1073     O1076   1.923       .  S
Ni1073     O1078   1.904       .  S
C1074      O1084   1.272       .  A
C1074      C2776   1.484       .  S
O1075     Ni1091   1.926       .  S
O1075      C1081   1.278       .  A
O1076      C1081   1.275       .  A
C1077      C3116   1.479       .  S
O1078      C1080   1.270       .  A
O1079     Ni1090   1.925       .  S
C1080      O1086   1.276       .  A
C1080      C3676   1.491       .  S
C1081      C2789   1.475       .  S
H1082      O1083   0.968       .  S
O1083     Ni1091   1.920   1_554  S
O1083     Ni1085   1.908       .  S
O1083     Ni1090   1.908       .  S
O1084     Ni1085   1.933       .  S
Ni1085     O1089   1.900       .  S
Ni1085     O1087   1.919       .  S
O1086     Ni1091   1.931       .  S
C1088      O1089   1.265       .  A
C1088      C2749   1.487       .  S
O1093     Ni1099   1.924       .  S
O1093      C1114   1.271       .  A
O1094     Ni1117   1.929       .  S
O1094      C1103   1.271       .  A
O1095     Ni1099   1.902       .  S
O1095     Ni1117   1.905       .  S
O1095     Ni1111   1.917       .  S
O1095      H1118   0.967       .  S
C1096      O1113   1.280       .  A
C1096      O1105   1.276       .  A
C1096      C2689   1.493   1_554  S
O1097     Ni1116   1.915       .  S
O1097      C1103   1.266       .  A
O1098     Ni1116   1.897       .  S
O1098      C1100   1.265       .  A
Ni1099     O1102   1.913       .  S
Ni1099     O1104   1.915       .  S
C1100      O1110   1.269       .  A
C1100      C2769   1.474       .  S
O1101     Ni1117   1.921       .  S
O1101      C1107   1.279       .  A
O1102      C1107   1.276       .  A
C1103      C3336   1.490       .  S
O1104      C1106   1.271       .  A
O1105     Ni1116   1.919       .  S
C1106      O1112   1.275       .  A
C1106      C2676   1.488       .  S
C1107      C2709   1.477       .  S
H1108      O1109   0.970       .  S
O1109     Ni1117   1.914       .  S
O1109     Ni1111   1.907       .  S
O1109     Ni1116   1.903       .  S
O1110     Ni1111   1.929       .  S
Ni1111     O1115   1.906       .  S
Ni1111     O1113   1.926       .  S
O1112     Ni1117   1.929       .  S
C1114      O1115   1.268       .  A
C1114      C2736   1.482       .  S
O1119     Ni1125   1.937       .  S
O1119      C1140   1.274       .  A
O1120     Ni1143   1.935       .  S
O1120      C1129   1.273       .  A
O1121     Ni1125   1.891       .  S
O1121     Ni1143   1.908       .  S
O1121     Ni1137   1.912       .  S
O1121      H1144   0.967       .  S
C1122      O1139   1.278       .  A
C1122      O1131   1.277       .  A
C1122      C2716   1.484       .  S
O1123     Ni1142   1.906       .  S
O1123      C1129   1.264       .  A
O1124     Ni1142   1.903       .  S
O1124      C1126   1.266       .  A
Ni1125     O1128   1.920       .  S
Ni1125     O1130   1.904       .  S
C1126      O1136   1.270       .  A
C1126      C2849   1.483       .  S
O1127     Ni1143   1.929       .  S
O1127      C1133   1.282       .  A
O1128      C1133   1.279       .  A
C1129      C3256   1.486       .  S
O1130      C1132   1.269       .  A
O1131     Ni1142   1.917       .  S
C1132      O1138   1.279       .  A
C1132      C2629   1.501       .  S
C1133      C2696   1.484       .  S
H1134      O1135   0.971       .  S
O1135     Ni1143   1.919       .  S
O1135     Ni1137   1.901       .  S
O1135     Ni1142   1.902       .  S
O1136     Ni1137   1.932       .  S
Ni1137     O1141   1.905       .  S
Ni1137     O1139   1.918       .  S
O1138     Ni1143   1.944       .  S
C1140      O1141   1.267       .  A
C1140      C2649   1.491       .  S
O1145     Ni1151   1.924       .  S
O1145      C1166   1.270       .  A
O1146     Ni1169   1.920       .  S
O1146      C1155   1.268       .  A
O1147     Ni1151   1.904       .  S
O1147     Ni1169   1.903       .  S
O1147     Ni1163   1.918       .  S
O1147      H1170   0.967       .  S
C1148      O1165   1.279       .  A
C1148      O1157   1.277       .  A
C1148      C2569   1.485   1_554  S
O1149     Ni1168   1.921       .  S
O1149      C1155   1.267       .  A
O1150     Ni1168   1.901       .  S
O1150      C1152   1.267       .  A
Ni1151     O1154   1.917       .  S
Ni1151     O1156   1.915       .  S
C1152      O1162   1.271       .  A
C1152      C2609   1.484       .  S
O1153     Ni1169   1.931       .  S
O1153      C1159   1.282       .  A
O1154      C1159   1.278       .  A
C1155      C3036   1.476       .  S
O1156      C1158   1.270       .  A
O1157     Ni1168   1.921       .  S
C1158      O1164   1.271       .  A
C1158      C4276   1.482       .  S
C1159      C2589   1.483       .  S
H1160      O1161   0.970       .  S
O1161     Ni1169   1.918       .  S
O1161     Ni1163   1.906       .  S
O1161     Ni1168   1.908       .  S
O1162     Ni1163   1.931       .  S
Ni1163     O1167   1.910       .  S
Ni1163     O1165   1.925       .  S
O1164     Ni1169   1.922       .  S
C1166      O1167   1.268       .  A
C1166      C2756   1.489       .  S
O1171     Ni1177   1.929       .  S
O1171      C1192   1.272       .  A
O1172     Ni1195   1.930       .  S
O1172      C1181   1.273       .  A
O1173     Ni1177   1.891       .  S
O1173     Ni1195   1.906       .  S
O1173     Ni1189   1.913       .  S
O1173      H1196   0.967       .  S
C1174      O1191   1.282       .  A
C1174      O1183   1.275       .  A
C1174      C2596   1.481       .  S
O1175     Ni1194   1.913       .  S
O1175      C1181   1.267       .  A
O1176     Ni1194   1.909       .  S
O1176      C1178   1.269       .  A
Ni1177     O1180   1.919       .  S
Ni1177     O1182   1.902       .  S
C1178      O1188   1.271       .  A
C1178      C2556   1.484       .  S
O1179     Ni1195   1.925       .  S
O1179      C1185   1.281       .  A
O1180      C1185   1.278       .  A
C1181      C2989   1.488       .  S
O1182      C1184   1.269       .  A
O1183     Ni1194   1.910       .  S
C1184      O1190   1.276       .  A
C1184      C4196   1.496       .  S
C1185      C2576   1.483       .  S
H1186      O1187   0.965       .  S
O1187     Ni1195   1.923       .  S
O1187     Ni1189   1.904       .  S
O1187     Ni1194   1.900       .  S
O1188     Ni1189   1.926       .  S
Ni1189     O1193   1.919       .  S
Ni1189     O1191   1.935       .  S
O1190     Ni1195   1.939       .  S
C1192      O1193   1.272       .  A
C1192      C2836   1.495       .  S
O1197     Ni1203   1.927       .  S
O1197      C1218   1.272       .  A
O1198     Ni1221   1.927       .  S
O1198      C1207   1.273       .  A
O1199     Ni1203   1.895       .  S
O1199     Ni1221   1.906       .  S
O1199     Ni1215   1.919       .  S
O1199      H1222   0.966       .  S
C1200      O1217   1.283       .  A
C1200      O1209   1.276       .  A
C1200      C2509   1.481       .  S
O1201     Ni1220   1.912       .  S
O1201      C1207   1.267       .  A
O1202     Ni1220   1.904       .  S
O1202      C1204   1.268       .  A
Ni1203     O1206   1.919       .  S
Ni1203     O1208   1.907       .  S
C1204      O1214   1.271       .  A
C1204      C2549   1.482       .  S
O1205     Ni1221   1.926       .  S
O1205      C1211   1.280       .  A
O1206      C1211   1.276       .  A
C1207      C2936   1.488       .  S
O1208      C1210   1.270       .  A
O1209     Ni1220   1.909       .  S
C1210      O1216   1.275       .  A
C1210      C2496   1.495       .  S
C1211      C2536   1.477       .  S
H1212      O1213   0.966       .  S
O1213     Ni1221   1.915       .  S
O1213     Ni1215   1.898       .  S
O1213     Ni1220   1.897       .  S
O1214     Ni1215   1.928       .  S
Ni1215     O1219   1.913       .  S
Ni1215     O1217   1.933       .  S
O1216     Ni1221   1.932       .  S
C1218      O1219   1.271       .  A
C1218      C2656   1.485       .  S
O1223     Ni1229   1.924       .  S
O1223      C1244   1.270   1_556  A
O1224     Ni1247   1.925       .  S
O1224      C1233   1.272       .  A
O1225     Ni1229   1.892       .  S
O1225     Ni1247   1.906       .  S
O1225     Ni1241   1.917   1_556  S
O1225      H1248   0.967       .  S
C1226      O1243   1.279       .  A
C1226      O1235   1.277       .  A
C1226      C2529   1.492       .  S
O1227     Ni1246   1.911   1_556  S
O1227      C1233   1.266       .  A
O1228     Ni1246   1.907       .  S
O1228      C1230   1.267       .  A
Ni1229     O1232   1.916       .  S
Ni1229     O1234   1.899       .  S
C1230      O1240   1.268       .  A
C1230      C2616   1.481       .  S
O1231     Ni1247   1.927       .  S
O1231      C1237   1.280       .  A
O1232      C1237   1.278       .  A
C1233      C2896   1.472       .  S
O1234      C1236   1.268       .  A
O1235     Ni1246   1.918       .  S
C1236      O1242   1.279       .  A
C1236      C2476   1.497       .  S
C1237      C2516   1.480       .  S
H1238      O1239   0.969       .  S
O1239     Ni1247   1.919   1_554  S
O1239     Ni1241   1.902       .  S
O1239     Ni1246   1.905       .  S
O1240     Ni1241   1.922       .  S
Ni1241     O1245   1.910       .  S
Ni1241     O1243   1.923       .  S
O1242     Ni1247   1.946       .  S
C1244      O1245   1.266       .  A
C1244      C2729   1.488       .  S
O1249     Ni1255   1.916       .  S
O1249      C1270   1.267       .  A
O1250     Ni1273   1.922       .  S
O1250      C1259   1.271       .  A
O1251     Ni1255   1.901       .  S
O1251     Ni1273   1.904       .  S
O1251     Ni1267   1.921       .  S
O1251      H1274   0.979       .  S
C1252      O1269   1.282       .  A
C1252      O1261   1.278       .  A
C1252      C2389   1.484   1_554  S
O1253     Ni1272   1.919       .  S
O1253      C1259   1.268       .  A
O1254     Ni1272   1.902       .  S
O1254      C1256   1.267       .  A
Ni1255     O1258   1.923       .  S
Ni1255     O1260   1.900       .  S
C1256      O1266   1.275       .  A
C1256      C5156   1.489       .  S
O1257     Ni1273   1.924       .  S
O1257      C1263   1.280       .  A
O1258      C1263   1.278       .  A
C1259      C2429   1.490       .  S
O1260      C1262   1.267       .  A
O1261     Ni1272   1.915       .  S
C1262      O1268   1.274       .  A
C1262      C2449   1.487       .  S
C1263      C2409   1.482       .  S
H1264      O1265   0.966       .  S
O1265     Ni1273   1.921       .  S
O1265     Ni1267   1.903       .  S
O1265     Ni1272   1.895       .  S
O1266     Ni1267   1.935       .  S
Ni1267     O1271   1.919       .  S
Ni1267     O1269   1.935       .  S
O1268     Ni1273   1.943       .  S
C1270      O1271   1.270       .  A
C1270      C2376   1.488       .  S
O1275     Ni1281   1.911       .  S
O1275      C1296   1.265       .  A
O1276     Ni1299   1.902       .  S
O1276      C1285   1.268       .  A
O1277     Ni1281   1.899       .  S
O1277     Ni1299   1.898       .  S
O1277     Ni1293   1.922       .  S
O1277      H1300   0.967       .  S
C1278      O1295   1.279       .  A
C1278      O1287   1.278       .  A
C1278      C2416   1.490       .  S
O1279     Ni1298   1.934       .  S
O1279      C1285   1.274       .  A
O1280     Ni1298   1.908       .  S
O1280      C1282   1.270       .  A
Ni1281     O1284   1.918       .  S
Ni1281     O1286   1.901       .  S
C1282      O1292   1.274       .  A
C1282      C5216   1.494       .  S
O1283     Ni1299   1.928       .  S
O1283      C1289   1.280       .  A
O1284      C1289   1.277       .  A
C1285      C2329   1.489       .  S
O1286      C1288   1.267       .  A
O1287     Ni1298   1.923       .  S
C1288      O1294   1.270       .  A
C1288      C2356   1.486       .  S
C1289      C2396   1.484       .  S
H1290      O1291   0.967       .  S
O1291     Ni1299   1.911       .  S
O1291     Ni1293   1.905       .  S
O1291     Ni1298   1.898       .  S
O1292     Ni1293   1.931       .  S
Ni1293     O1297   1.928       .  S
Ni1293     O1295   1.921       .  S
O1294     Ni1299   1.927       .  S
C1296      O1297   1.271       .  A
C1296      C2316   1.487       .  S
O1301     Ni1307   1.908       .  S
O1301      C1322   1.264       .  A
O1302     Ni1325   1.908       .  S
O1302      C1311   1.269       .  A
O1303     Ni1307   1.903       .  S
O1303     Ni1325   1.903       .  S
O1303     Ni1319   1.921       .  S
O1303      H1326   0.969       .  S
C1304      O1321   1.279       .  A
C1304      O1313   1.278       .  A
C1304      C2249   1.484       .  S
O1305     Ni1324   1.938       .  S
O1305      C1311   1.274       .  A
O1306     Ni1324   1.911       .  S
O1306      C1308   1.270       .  A
Ni1307     O1310   1.911       .  S
Ni1307     O1312   1.906       .  S
C1308      O1318   1.272       .  A
C1308      C2489   1.486       .  S
O1309     Ni1325   1.925       .  S
O1309      C1315   1.279       .  A
O1310      C1315   1.276       .  A
C1311      C2296   1.492       .  S
O1312      C1314   1.268       .  A
O1313     Ni1324   1.925       .  S
C1314      O1320   1.272       .  A
C1314      C2456   1.482       .  S
C1315      C2269   1.490       .  S
H1316      O1317   0.967       .  S
O1317     Ni1325   1.911       .  S
O1317     Ni1319   1.913       .  S
O1317     Ni1324   1.905       .  S
O1318     Ni1319   1.929       .  S
Ni1319     O1323   1.930       .  S
Ni1319     O1321   1.920       .  S
O1320     Ni1325   1.929       .  S
C1322      O1323   1.270       .  A
C1322      C2229   1.490       .  S
O1327     Ni1333   1.904       .  S
O1327      C1348   1.264       .  A
O1328     Ni1351   1.899       .  S
O1328      C1337   1.267       .  A
O1329     Ni1333   1.892       .  S
O1329     Ni1351   1.891       .  S
O1329     Ni1345   1.922       .  S
O1329      H1352   0.968       .  S
C1330      O1347   1.281       .  A
C1330      O1339   1.278       .  A
C1330      C2276   1.480       .  S
O1331     Ni1350   1.944       .  S
O1331      C1337   1.277       .  A
O1332     Ni1350   1.914       .  S
O1332      C1334   1.272       .  A
Ni1333     O1336   1.912       .  S
Ni1333     O1338   1.903       .  S
C1334      O1344   1.274       .  A
C1334      C2469   1.494       .  S
O1335     Ni1351   1.932       .  S
O1335      C1341   1.281       .  A
O1336      C1341   1.277       .  A
C1337      C2209   1.491       .  S
O1338      C1340   1.266       .  A
O1339     Ni1350   1.926       .  S
C1340      O1346   1.269       .  A
C1340      C2349   1.486       .  S
C1341      C2256   1.490       .  S
H1342      O1343   0.966       .  S
O1343     Ni1351   1.909       .  S
O1343     Ni1345   1.913       .  S
O1343     Ni1350   1.897       .  S
O1344     Ni1345   1.934       .  S
Ni1345     O1349   1.940       .  S
Ni1345     O1347   1.923       .  S
O1346     Ni1351   1.925       .  S
C1348      O1349   1.275       .  A
C1348      C2189   1.493       .  S
O1353     Ni1359   1.914       .  S
O1353      C1374   1.267       .  A
O1354     Ni1377   1.914       .  S
O1354      C1363   1.271       .  A
O1355     Ni1359   1.895       .  S
O1355     Ni1377   1.902       .  S
O1355     Ni1371   1.914       .  S
O1355      H1378   0.969       .  S
C1356      O1373   1.280       .  A
C1356      O1365   1.278       .  A
C1356      C2129   1.491       .  S
O1357     Ni1376   1.933       .  S
O1357      C1363   1.273       .  A
O1358     Ni1376   1.908       .  S
O1358      C1360   1.268       .  A
Ni1359     O1362   1.906       .  S
Ni1359     O1364   1.910       .  S
C1360      O1370   1.273       .  A
C1360      C4409   1.487       .  S
O1361     Ni1377   1.939       .  S
O1361      C1367   1.283       .  A
O1362      C1367   1.275       .  A
C1363      C2436   1.495       .  S
O1364      C1366   1.269       .  A
O1365     Ni1376   1.927       .  S
C1366      O1372   1.273       .  A
C1366      C2169   1.487       .  S
C1367      C2156   1.486       .  S
H1368      O1369   0.967       .  S
O1369     Ni1377   1.916       .  S
O1369     Ni1371   1.916       .  S
O1369     Ni1376   1.903       .  S
O1370     Ni1371   1.930       .  S
Ni1371     O1375   1.936       .  S
Ni1371     O1373   1.920       .  S
O1372     Ni1377   1.937       .  S
C1374      O1375   1.273       .  A
C1374      C2109   1.497       .  S
O1379     Ni1385   1.912       .  S
O1379      C1400   1.266       .  A
O1380     Ni1403   1.902       .  S
O1380      C1389   1.266       .  A
O1381     Ni1385   1.902       .  S
O1381     Ni1403   1.901       .  S
O1381     Ni1397   1.911       .  S
O1381      H1404   0.967       .  S
C1382      O1399   1.277       .  A
C1382      O1391   1.275       .  A
C1382      C2149   1.478       .  S
O1383     Ni1402   1.927       .  S
O1383      C1389   1.271       .  A
O1384     Ni1402   1.905       .  S
O1384      C1386   1.269       .  A
Ni1385     O1388   1.914       .  S
Ni1385     O1390   1.907       .  S
C1386      O1396   1.272       .  A
C1386      C4396   1.481       .  S
O1387     Ni1403   1.930       .  S
O1387      C1393   1.281       .  A
O1388      C1393   1.276       .  A
C1389      C2336   1.487       .  S
O1390      C1392   1.267       .  A
O1391     Ni1402   1.917       .  S
C1392      O1398   1.268       .  A
C1392      C2089   1.482       .  S
C1393      C2136   1.486       .  S
H1394      O1395   0.967       .  S
O1395     Ni1403   1.920       .  S
O1395     Ni1397   1.910       .  S
O1395     Ni1402   1.906       .  S
O1396     Ni1397   1.919       .  S
Ni1397     O1401   1.923       .  S
Ni1397     O1399   1.920       .  S
O1398     Ni1403   1.924       .  S
C1400      O1401   1.269       .  A
C1400      C2076   1.485       .  S
O1405     Ni1411   1.915       .  S
O1405      C1426   1.267       .  A
O1406     Ni1429   1.916       .  S
O1406      C1415   1.271       .  A
O1407     Ni1411   1.894       .  S
O1407     Ni1429   1.903       .  S
O1407     Ni1423   1.916       .  S
O1407      H1430   0.967       .  S
C1408      O1425   1.280   1_556  A
C1408      O1417   1.278   1_556  A
C1408      C2036   1.487       .  S
O1409     Ni1428   1.931       .  S
O1409      C1415   1.273       .  A
O1410     Ni1428   1.907       .  S
O1410      C1412   1.270       .  A
Ni1411     O1414   1.914       .  S
Ni1411     O1416   1.904       .  S
C1412      O1422   1.276       .  A
C1412      C2869   1.492       .  S
O1413     Ni1429   1.930       .  S
O1413      C1419   1.282       .  A
O1414      C1419   1.277       .  A
C1415      C2289   1.493       .  S
O1416      C1418   1.268       .  A
O1417     Ni1428   1.917       .  S
C1418      O1424   1.273       .  A
C1418      C2176   1.500       .  S
C1419      C2049   1.491       .  S
H1420      O1421   0.967       .  S
O1421     Ni1429   1.916       .  S
O1421     Ni1423   1.908       .  S
O1421     Ni1428   1.893       .  S
O1422     Ni1423   1.936       .  S
Ni1423     O1427   1.933       .  S
Ni1423     O1425   1.926       .  S
O1424     Ni1429   1.940       .  S
C1426      O1427   1.273       .  A
C1426      C2016   1.497       .  S
O1431     Ni1437   1.913       .  S
O1431      C1452   1.267       .  A
O1432     Ni1455   1.910       .  S
O1432      C1441   1.271       .  A
O1433     Ni1437   1.895       .  S
O1433     Ni1455   1.898       .  S
O1433     Ni1449   1.915       .  S
O1433      H1456   0.967       .  S
C1434      O1451   1.278       .  A
C1434      O1443   1.280       .  A
C1434      C2056   1.477       .  S
O1435     Ni1454   1.938       .  S
O1435      C1441   1.276       .  A
O1436     Ni1454   1.919       .  S
O1436      C1438   1.272       .  A
Ni1437     O1440   1.914       .  S
Ni1437     O1442   1.907       .  S
C1438      O1448   1.277       .  A
C1438      C2909   1.501       .  S
O1439     Ni1455   1.926       .  S
O1439      C1445   1.281       .  A
O1440      C1445   1.277       .  A
C1441      C2216   1.495       .  S
O1442      C1444   1.268       .  A
O1443     Ni1454   1.930       .  S
C1444      O1450   1.275       .  A
C1444      C2096   1.491       .  S
C1445      C2029   1.470       .  S
H1446      O1447   0.967       .  S
O1447     Ni1455   1.915       .  S
O1447     Ni1449   1.906       .  S
O1447     Ni1454   1.899       .  S
O1448     Ni1449   1.942       .  S
Ni1449     O1453   1.927       .  S
Ni1449     O1451   1.915       .  S
O1450     Ni1455   1.944       .  S
C1452      O1453   1.271       .  A
C1452      C1996   1.488       .  S
O1457     Ni1463   1.904   1_554  S
O1457      C1478   1.264       .  A
O1458     Ni1481   1.910       .  S
O1458      C1467   1.267       .  A
O1459     Ni1463   1.909   1_554  S
O1459     Ni1481   1.901   1_554  S
O1459     Ni1475   1.919       .  S
O1459      H1482   0.967   1_554  S
C1460      O1477   1.278       .  A
C1460      O1469   1.278       .  A
C1460      C1929   1.489       .  S
O1461     Ni1480   1.940       .  S
O1461      C1467   1.274   1_554  A
O1462     Ni1480   1.909       .  S
O1462      C1464   1.271       .  A
Ni1463     O1466   1.915       .  S
Ni1463     O1468   1.905       .  S
C1464      O1474   1.273       .  A
C1464      C4916   1.494       .  S
O1465     Ni1481   1.916       .  S
O1465      C1471   1.278       .  A
O1466      C1471   1.276       .  A
C1467      C1949   1.498       .  S
O1468      C1470   1.267       .  A
O1469     Ni1480   1.924       .  S
C1470      O1476   1.271       .  A
C1470      C1969   1.487       .  S
C1471      C1916   1.481       .  S
H1472      O1473   0.967       .  S
O1473     Ni1481   1.916   1_554  S
O1473     Ni1475   1.917       .  S
O1473     Ni1480   1.906       .  S
O1474     Ni1475   1.931       .  S
Ni1475     O1479   1.928       .  S
Ni1475     O1477   1.922       .  S
O1476     Ni1481   1.931       .  S
C1478      O1479   1.268       .  A
C1478      C2369   1.481       .  S
O1483     Ni1489   1.907       .  S
O1483      C1504   1.264       .  A
O1484     Ni1507   1.902       .  S
O1484      C1493   1.269       .  A
O1485     Ni1489   1.897       .  S
O1485     Ni1507   1.893       .  S
O1485     Ni1501   1.922       .  S
O1485      H1508   0.968       .  S
C1486      O1503   1.279       .  A
C1486      O1495   1.279       .  A
C1486      C1909   1.477       .  S
O1487     Ni1506   1.937       .  S
O1487      C1493   1.275       .  A
O1488     Ni1506   1.914       .  S
O1488      C1490   1.271       .  A
Ni1489     O1492   1.913       .  S
Ni1489     O1494   1.905       .  S
C1490      O1500   1.276       .  A
C1490      C4869   1.496       .  S
O1491     Ni1507   1.936       .  S
O1491      C1497   1.282       .  A
O1492      C1497   1.277       .  A
C1493      C1869   1.491       .  S
O1494      C1496   1.267       .  A
O1495     Ni1506   1.922       .  S
C1496      O1502   1.273       .  A
C1496      C1889   1.486       .  S
C1497      C1936   1.489       .  S
H1498      O1499   0.967       .  S
O1499     Ni1507   1.911       .  S
O1499     Ni1501   1.904       .  S
O1499     Ni1506   1.895       .  S
O1500     Ni1501   1.940       .  S
Ni1501     O1505   1.926       .  S
Ni1501     O1503   1.919       .  S
O1502     Ni1507   1.938       .  S
C1504      O1505   1.272       .  A
C1504      C2309   1.487       .  S
O1509     Ni1515   1.908       .  S
O1509      C1530   1.265       .  A
O1510     Ni1533   1.908       .  S
O1510      C1519   1.270       .  A
O1511     Ni1515   1.895       .  S
O1511     Ni1533   1.896       .  S
O1511     Ni1527   1.921       .  S
O1511      H1534   0.967       .  S
C1512      O1529   1.280       .  A
C1512      O1521   1.278       .  A
C1512      C1829   1.479       .  S
O1513     Ni1532   1.929       .  S
O1513      C1519   1.273       .  A
O1514     Ni1532   1.903       .  S
O1514      C1516   1.269       .  A
Ni1515     O1518   1.909       .  S
Ni1515     O1520   1.909       .  S
C1516      O1526   1.276       .  A
C1516      C2669   1.490       .  S
O1517     Ni1533   1.935       .  S
O1517      C1523   1.281       .  A
O1518      C1523   1.276       .  A
C1519      C1856   1.483       .  S
O1520      C1522   1.267       .  A
O1521     Ni1532   1.923       .  S
C1522      O1528   1.273       .  A
C1522      C1896   1.487       .  S
C1523      C1809   1.491       .  S
H1524      O1525   0.967       .  S
O1525     Ni1533   1.911       .  S
O1525     Ni1527   1.906       .  S
O1525     Ni1532   1.893       .  S
O1526     Ni1527   1.946       .  S
Ni1527     O1531   1.930       .  S
Ni1527     O1529   1.923       .  S
O1528     Ni1533   1.934       .  S
C1530      O1531   1.273       .  A
C1530      C2236   1.487       .  S
O1535     Ni1541   1.917       .  S
O1535      C1556   1.267       .  A
O1536     Ni1559   1.899       .  S
O1536      C1545   1.266       .  A
O1537     Ni1541   1.901       .  S
O1537     Ni1559   1.903       .  S
O1537     Ni1553   1.921       .  S
O1537      H1560   0.968       .  S
C1538      O1555   1.282       .  A
C1538      O1547   1.278       .  A
C1538      C1816   1.479       .  S
O1539     Ni1558   1.928       .  S
O1539      C1545   1.271       .  A
O1540     Ni1558   1.910       .  S
O1540      C1542   1.270       .  A
Ni1541     O1544   1.921       .  S
Ni1541     O1546   1.901       .  S
C1542      O1552   1.274       .  A
C1542      C2636   1.495       .  S
O1543     Ni1559   1.924       .  S
O1543      C1549   1.277       .  A
O1544      C1549   1.277       .  A
C1545      C1789   1.475       .  S
O1546      C1548   1.266       .  A
O1547     Ni1558   1.914       .  S
C1548      O1554   1.272       .  A
C1548      C1976   1.480       .  S
C1549      C1836   1.490   1_556  S
H1550      O1551   0.968       .  S
O1551     Ni1559   1.905       .  S
O1551     Ni1553   1.902       .  S
O1551     Ni1558   1.897       .  S
O1552     Ni1553   1.937       .  S
Ni1553     O1557   1.926       .  S
Ni1553     O1555   1.924       .  S
O1554     Ni1559   1.934       .  S
C1556      O1557   1.271       .  A
C1556      C2196   1.483       .  S
O1561     Ni1567   1.907       .  S
O1561      C1582   1.265       .  A
O1562     Ni1585   1.911       .  S
O1562      C1571   1.268       .  A
O1563     Ni1567   1.897       .  S
O1563     Ni1585   1.902   1_545  S
O1563     Ni1579   1.924       .  S
O1563      H1586   0.968       .  S
C1564      O1581   1.282   1_565  A
C1564      O1573   1.276       .  A
C1564      C1756   1.489       .  S
O1565     Ni1584   1.925       .  S
O1565      C1571   1.270       .  A
O1566     Ni1584   1.901       .  S
O1566      C1568   1.269       .  A
Ni1567     O1570   1.911       .  S
Ni1567     O1572   1.905       .  S
C1568      O1578   1.275   1_565  A
C1568      C4629   1.488       .  S
O1569     Ni1585   1.935       .  S
O1569      C1575   1.282   1_565  A
O1570      C1575   1.276       .  A
C1571      C1876   1.489       .  S
O1572      C1574   1.268       .  A
O1573     Ni1584   1.914       .  S
C1574      O1580   1.270   1_545  A
C1574      C1776   1.491       .  S
C1575      C1736   1.489       .  S
H1576      O1577   0.966       .  S
O1577     Ni1585   1.919       .  S
O1577     Ni1579   1.910   1_565  S
O1577     Ni1584   1.896       .  S
O1578     Ni1579   1.934       .  S
Ni1579     O1583   1.938       .  S
Ni1579     O1581   1.930       .  S
O1580     Ni1585   1.929       .  S
C1582      O1583   1.274       .  A
C1582      C2116   1.485       .  S
O1587     Ni1593   1.914       .  S
O1587      C1608   1.268       .  A
O1588     Ni1611   1.916       .  S
O1588      C1597   1.272       .  A
O1589     Ni1593   1.896       .  S
O1589     Ni1611   1.899   1_545  S
O1589     Ni1605   1.917       .  S
O1589      H1612   0.967       .  S
C1590      O1607   1.282   1_565  A
C1590      O1599   1.279       .  A
C1590      C1729   1.481   1_565  S
O1591     Ni1610   1.931       .  S
O1591      C1597   1.274       .  A
O1592     Ni1610   1.911       .  S
O1592      C1594   1.270       .  A
Ni1593     O1596   1.919       .  S
Ni1593     O1598   1.906       .  S
C1594      O1604   1.271   1_565  A
C1594      C4596   1.484   1_565  S
O1595     Ni1611   1.922       .  S
O1595      C1601   1.281   1_565  A
O1596      C1601   1.277       .  A
C1597      C1956   1.491       .  S
O1598      C1600   1.269       .  A
O1599     Ni1610   1.919       .  S
C1600      O1606   1.272   1_545  A
C1600      C1709   1.487       .  S
C1601      C1749   1.474   1_556  S
H1602      O1603   0.967       .  S
O1603     Ni1611   1.914       .  S
O1603     Ni1605   1.901   1_565  S
O1603     Ni1610   1.892       .  S
O1604     Ni1605   1.925       .  S
Ni1605     O1609   1.919       .  S
Ni1605     O1607   1.931       .  S
O1606     Ni1611   1.931       .  S
C1608      O1609   1.269       .  A
C1608      C2069   1.487       .  S
O1613     Ni1619   1.910   1_554  S
O1613      C1634   1.266       .  A
O1614     Ni1637   1.901       .  S
O1614      C1623   1.264       .  A
O1615     Ni1619   1.902       .  S
O1615     Ni1637   1.902   1_545  S
O1615     Ni1631   1.916   1_556  S
O1615      H1638   0.968       .  S
C1616      O1633   1.278       .  A
C1616      O1625   1.276   1_545  A
C1616      C1689   1.476       .  S
O1617     Ni1636   1.928       .  S
O1617      C1623   1.271   1_554  A
O1618     Ni1636   1.904       .  S
O1618      C1620   1.270       .  A
Ni1619     O1622   1.915       .  S
Ni1619     O1624   1.906       .  S
C1620      O1630   1.276   1_565  A
C1620      C3309   1.485       .  S
O1621     Ni1637   1.927       .  S
O1621      C1627   1.279   1_565  A
O1622      C1627   1.276       .  A
C1623      C1796   1.486       .  S
O1624      C1626   1.267       .  A
O1625     Ni1636   1.911       .  S
C1626      O1632   1.267   1_545  A
C1626      C1716   1.482       .  S
C1627      C1669   1.489       .  S
H1628      O1629   0.967       .  S
O1629     Ni1637   1.917   1_554  S
O1629     Ni1631   1.913   1_565  S
O1629     Ni1636   1.899       .  S
O1630     Ni1631   1.933       .  S
Ni1631     O1635   1.933       .  S
Ni1631     O1633   1.926       .  S
O1632     Ni1637   1.922       .  S
C1634      O1635   1.273       .  A
C1634      C2009   1.484       .  S
O1639     Ni1645   1.905       .  S
O1639      C1660   1.265       .  A
O1640     Ni1663   1.903       .  S
O1640      C1649   1.268       .  A
O1641     Ni1645   1.888       .  S
O1641     Ni1663   1.890   1_545  S
O1641     Ni1657   1.920       .  S
O1641      H1664   0.968       .  S
C1642      O1659   1.281   1_565  A
C1642      O1651   1.278       .  A
C1642      C1676   1.481   1_565  S
O1643     Ni1662   1.930       .  S
O1643      C1649   1.273       .  A
O1644     Ni1662   1.910       .  S
O1644      C1646   1.269   1_565  A
Ni1645     O1648   1.908       .  S
Ni1645     O1650   1.907       .  S
C1646      O1656   1.273       .  A
C1646      C3229   1.491       .  S
O1647     Ni1663   1.934       .  S
O1647      C1653   1.282   1_565  A
O1648      C1653   1.276       .  A
C1649      C1849   1.486       .  S
O1650      C1652   1.267       .  A
O1651     Ni1662   1.924       .  S
C1652      O1658   1.272   1_545  A
C1652      C1769   1.487       .  S
C1653      C1696   1.484       .  S
H1654      O1655   0.967       .  S
O1655     Ni1663   1.909       .  S
O1655     Ni1657   1.906   1_565  S
O1655     Ni1662   1.896       .  S
O1656     Ni1657   1.932       .  S
Ni1657     O1661   1.932       .  S
Ni1657     O1659   1.923       .  S
O1658     Ni1663   1.932       .  S
C1660      O1661   1.273       .  A
C1660      C1989   1.487       .  S
C1665      C1666   1.407   1_565  A
C1665      C1670   1.404       .  A
C1665      F1683   1.358       .  S
C1666      C1671   1.480       .  S
C1666      C1667   1.399       .  A
C1667      C1668   1.393       .  A
C1667      F1672   1.358       .  S
C1668      C1669   1.414       .  A
C1668      F1684   1.358       .  S
C1669      C1670   1.411   1_545  A
C1670      F1673   1.358       .  S
C1671      C1674   1.401   1_545  A
C1671      C1678   1.409       .  A
C1674      C1675   1.395       .  A
C1674      F1679   1.358       .  S
C1675      C1676   1.412   1_565  A
C1675      F1681   1.358       .  S
C1676      C1677   1.406       .  A
C1677      C1678   1.402       .  A
C1677      F1680   1.358       .  S
C1678      F1682   1.358       .  S
C1685      C1686   1.400   1_565  A
C1685      C1690   1.390       .  A
C1685      F1703   1.358       .  S
C1686      C1691   1.477       .  S
C1686      C1687   1.409       .  A
C1687      C1688   1.404       .  A
C1687      F1692   1.358       .  S
C1688      C1689   1.406       .  A
C1688      F1704   1.358       .  S
C1689      C1690   1.409   1_545  A
C1690      F1693   1.357       .  S
C1691      C1694   1.405   1_545  A
C1691      C1698   1.402       .  A
C1694      C1695   1.396       .  A
C1694      F1699   1.358       .  S
C1695      C1696   1.410   1_565  A
C1695      F1701   1.358       .  S
C1696      C1697   1.413       .  A
C1697      C1698   1.397       .  A
C1697      F1700   1.358       .  S
C1698      F1702   1.358       .  S
C1705      C1706   1.406   1_565  A
C1705      C1710   1.403       .  A
C1705      F1723   1.358       .  S
C1706      C1711   1.487       .  S
C1706      C1707   1.406       .  A
C1707      C1708   1.397       .  A
C1707      F1712   1.358       .  S
C1708      C1709   1.409       .  A
C1708      F1724   1.358       .  S
C1709      C1710   1.412   1_545  A
C1710      F1713   1.358       .  S
C1711      C1714   1.407       .  A
C1711      C1718   1.406   1_545  A
C1714      C1715   1.397       .  A
C1714      F1719   1.358       .  S
C1715      C1716   1.406       .  A
C1715      F1721   1.358   1_556  S
C1716      C1717   1.411   1_545  A
C1717      C1718   1.402       .  A
C1717      F1720   1.358       .  S
C1718      F1722   1.358       .  S
C1725      C1726   1.404       .  A
C1725      C1730   1.398       .  A
C1725      F1743   1.358       .  S
C1726      C1731   1.480       .  S
C1726      C1727   1.404   1_545  A
C1727      C1728   1.400       .  A
C1727      F1732   1.358       .  S
C1728      C1729   1.409   1_565  A
C1728      F1744   1.358       .  S
C1729      C1730   1.409       .  A
C1730      F1733   1.358       .  S
C1731      C1734   1.407   1_545  A
C1731      C1738   1.399       .  A
C1734      C1735   1.405       .  A
C1734      F1739   1.358       .  S
C1735      C1736   1.411   1_565  A
C1735      F1741   1.358       .  S
C1736      C1737   1.414       .  A
C1737      C1738   1.393       .  A
C1737      F1740   1.358       .  S
C1738      F1742   1.358       .  S
C1745      C1746   1.409   1_565  A
C1745      C1750   1.399       .  A
C1745      F1763   1.358       .  S
C1746      C1751   1.485       .  S
C1746      C1747   1.407       .  A
C1747      C1748   1.397       .  A
C1747      F1752   1.358       .  S
C1748      C1749   1.406       .  A
C1748      F1764   1.358       .  S
C1749      C1750   1.405   1_545  A
C1750      F1753   1.358   1_554  S
C1751      C1754   1.403   1_545  A
C1751      C1758   1.408       .  A
C1754      C1755   1.395       .  A
C1754      F1759   1.359       .  S
C1755      C1756   1.415       .  A
C1755      F1761   1.358       .  S
C1756      C1757   1.409   1_565  A
C1757      C1758   1.401       .  A
C1757      F1760   1.358       .  S
C1758      F1762   1.358       .  S
C1765      C1766   1.405   1_565  A
C1765      C1770   1.405       .  A
C1765      F1783   1.357       .  S
C1766      C1771   1.479       .  S
C1766      C1767   1.401       .  A
C1767      C1768   1.395       .  A
C1767      F1772   1.358       .  S
C1768      C1769   1.412       .  A
C1768      F1784   1.358       .  S
C1769      C1770   1.410   1_545  A
C1770      F1773   1.358       .  S
C1771      C1774   1.404   1_545  A
C1771      C1778   1.400       .  A
C1774      C1775   1.406       .  A
C1774      F1779   1.358       .  S
C1775      C1776   1.414   1_565  A
C1775      F1781   1.358       .  S
C1776      C1777   1.412       .  A
C1777      C1778   1.395       .  A
C1777      F1780   1.358       .  S
C1778      F1782   1.358       .  S
C1785      C1786   1.404       .  A
C1785      C1790   1.395       .  A
C1785      F1803   1.358       .  S
C1786      C1791   1.475       .  S
C1786      C1787   1.404       .  A
C1787      C1788   1.397       .  A
C1787      F1792   1.358       .  S
C1788      C1789   1.408       .  A
C1788      F1804   1.358       .  S
C1789      C1790   1.407       .  A
C1790      F1793   1.358       .  S
C1791      C1794   1.402       .  A
C1791      C1798   1.402       .  A
C1794      C1795   1.396   1_556  A
C1794      F1799   1.358   1_556  S
C1795      C1796   1.412   1_554  A
C1795      F1801   1.358       .  S
C1796      C1797   1.413       .  A
C1797      C1798   1.398       .  A
C1797      F1800   1.358       .  S
C1798      F1802   1.358       .  S
C1805      C1806   1.403       .  A
C1805      C1810   1.399       .  A
C1805      F1823   1.358       .  S
C1806      C1811   1.476       .  S
C1806      C1807   1.400       .  A
C1807      C1808   1.395       .  A
C1807      F1812   1.358       .  S
C1808      C1809   1.414       .  A
C1808      F1824   1.358       .  S
C1809      C1810   1.412       .  A
C1810      F1813   1.354       .  S
C1811      C1814   1.400       .  A
C1811      C1818   1.407       .  A
C1814      C1815   1.393       .  A
C1814      F1819   1.358       .  S
C1815      C1816   1.412       .  A
C1815      F1821   1.359       .  S
C1816      C1817   1.407       .  A
C1817      C1818   1.400       .  A
C1817      F1820   1.358       .  S
C1818      F1822   1.358       .  S
C1825      C1826   1.408       .  A
C1825      C1830   1.402       .  A
C1825      F1843   1.358       .  S
C1826      C1831   1.480       .  S
C1826      C1827   1.402       .  A
C1827      C1828   1.395       .  A
C1827      F1832   1.358       .  S
C1828      C1829   1.410       .  A
C1828      F1844   1.358       .  S
C1829      C1830   1.406       .  A
C1830      F1833   1.358       .  S
C1831      C1834   1.401       .  A
C1831      C1838   1.405       .  A
C1834      C1835   1.397       .  A
C1834      F1839   1.358       .  S
C1835      C1836   1.412       .  A
C1835      F1841   1.357       .  S
C1836      C1837   1.413       .  A
C1837      C1838   1.401       .  A
C1837      F1840   1.358       .  S
C1838      F1842   1.358       .  S
C1845      C1846   1.401       .  A
C1845      C1850   1.399       .  A
C1845      F1863   1.358       .  S
C1846      C1851   1.471       .  S
C1846      C1847   1.399       .  A
C1847      C1848   1.396       .  A
C1847      F1852   1.358       .  S
C1848      C1849   1.414       .  A
C1848      F1864   1.358       .  S
C1849      C1850   1.412       .  A
C1850      F1853   1.358       .  S
C1851      C1854   1.402       .  A
C1851      C1858   1.400       .  A
C1854      C1855   1.399       .  A
C1854      F1859   1.358       .  S
C1855      C1856   1.409       .  A
C1855      F1861   1.355       .  S
C1856      C1857   1.412       .  A
C1857      C1858   1.396       .  A
C1857      F1860   1.358       .  S
C1858      F1862   1.358       .  S
C1865      C1866   1.402       .  A
C1865      C1870   1.400       .  A
C1865      F1883   1.358       .  S
C1866      C1871   1.476       .  S
C1866      C1867   1.400       .  A
C1867      C1868   1.398       .  A
C1867      F1872   1.358       .  S
C1868      C1869   1.414       .  A
C1868      F1884   1.358       .  S
C1869      C1870   1.413       .  A
C1870      F1873   1.358       .  S
C1871      C1874   1.402       .  A
C1871      C1878   1.400       .  A
C1874      C1875   1.400       .  A
C1874      F1879   1.358       .  S
C1875      C1876   1.412       .  A
C1875      F1881   1.358       .  S
C1876      C1877   1.414       .  A
C1877      C1878   1.398       .  A
C1877      F1880   1.358       .  S
C1878      F1882   1.358       .  S
C1885      C1886   1.407       .  A
C1885      C1890   1.406       .  A
C1885      F1903   1.358       .  S
C1886      C1891   1.483       .  S
C1886      C1887   1.401       .  A
C1887      C1888   1.397       .  A
C1887      F1892   1.358       .  S
C1888      C1889   1.411       .  A
C1888      F1904   1.358       .  S
C1889      C1890   1.409       .  A
C1890      F1893   1.358       .  S
C1891      C1894   1.405       .  A
C1891      C1898   1.403       .  A
C1894      C1895   1.403       .  A
C1894      F1899   1.357       .  S
C1895      C1896   1.408       .  A
C1895      F1901   1.357       .  S
C1896      C1897   1.412       .  A
C1897      C1898   1.400       .  A
C1897      F1900   1.358       .  S
C1898      F1902   1.358       .  S
C1905      C1906   1.407       .  A
C1905      C1910   1.403       .  A
C1905      F1923   1.358       .  S
C1906      C1911   1.476       .  S
C1906      C1907   1.400       .  A
C1907      C1908   1.390       .  A
C1907      F1912   1.358       .  S
C1908      C1909   1.410       .  A
C1908      F1924   1.358       .  S
C1909      C1910   1.407       .  A
C1910      F1913   1.358       .  S
C1911      C1914   1.402       .  A
C1911      C1918   1.404       .  A
C1914      C1915   1.397       .  A
C1914      F1919   1.358       .  S
C1915      C1916   1.412       .  A
C1915      F1921   1.358       .  S
C1916      C1917   1.409       .  A
C1917      C1918   1.395       .  A
C1917      F1920   1.357       .  S
C1918      F1922   1.358       .  S
C1925      C1926   1.408       .  A
C1925      C1930   1.403       .  A
C1925      F1943   1.358       .  S
C1926      C1931   1.488       .  S
C1926      C1927   1.404       .  A
C1927      C1928   1.396       .  A
C1927      F1932   1.358       .  S
C1928      C1929   1.412       .  A
C1928      F1944   1.358       .  S
C1929      C1930   1.410       .  A
C1930      F1933   1.358       .  S
C1931      C1934   1.405       .  A
C1931      C1938   1.407       .  A
C1934      C1935   1.400       .  A
C1934      F1939   1.358       .  S
C1935      C1936   1.412       .  A
C1935      F1941   1.358       .  S
C1936      C1937   1.410       .  A
C1937      C1938   1.400       .  A
C1937      F1940   1.358       .  S
C1938      F1942   1.358       .  S
C1945      C1946   1.402       .  A
C1945      C1950   1.401       .  A
C1945      F1963   1.358       .  S
C1946      C1951   1.481       .  S
C1946      C1947   1.402       .  A
C1947      C1948   1.403       .  A
C1947      F1952   1.358       .  S
C1948      C1949   1.415       .  A
C1948      F1964   1.357       .  S
C1949      C1950   1.414       .  A
C1950      F1953   1.357   1_556  S
C1951      C1954   1.402       .  A
C1951      C1958   1.404       .  A
C1954      C1955   1.401       .  A
C1954      F1959   1.358       .  S
C1955      C1956   1.413       .  A
C1955      F1961   1.358       .  S
C1956      C1957   1.411       .  A
C1957      C1958   1.403       .  A
C1957      F1960   1.358       .  S
C1958      F1962   1.358       .  S
C1965      C1966   1.406       .  A
C1965      C1970   1.398       .  A
C1965      F1983   1.358       .  S
C1966      C1971   1.485       .  S
C1966      C1967   1.404       .  A
C1967      C1968   1.403       .  A
C1967      F1972   1.358       .  S
C1968      C1969   1.412       .  A
C1968      F1984   1.358       .  S
C1969      C1970   1.409       .  A
C1970      F1973   1.358       .  S
C1971      C1974   1.407       .  A
C1971      C1978   1.405       .  A
C1974      C1975   1.405       .  A
C1974      F1979   1.358       .  S
C1975      C1976   1.408       .  A
C1975      F1981   1.358       .  S
C1976      C1977   1.407       .  A
C1977      C1978   1.397       .  A
C1977      F1980   1.358       .  S
C1978      F1982   1.358       .  S
C1985      C1986   1.402       .  A
C1985      C1990   1.392       .  A
C1985      F2003   1.359       .  S
C1986      C1991   1.484       .  S
C1986      C1987   1.408       .  A
C1987      C1988   1.406       .  A
C1987      F1992   1.357       .  S
C1988      C1989   1.410       .  A
C1988      F2004   1.358       .  S
C1989      C1990   1.412       .  A
C1990      F1993   1.358       .  S
C1991      C1994   1.407       .  A
C1991      C1998   1.403       .  A
C1994      C1995   1.405       .  A
C1994      F1999   1.358       .  S
C1995      C1996   1.410       .  A
C1995      F2001   1.357       .  S
C1996      C1997   1.412       .  A
C1997      C1998   1.394       .  A
C1997      F2000   1.358       .  S
C1998      F2002   1.359       .  S
C2005      C2006   1.403       .  A
C2005      C2010   1.397       .  A
C2005      F2023   1.358   1_554  S
C2006      C2011   1.490       .  S
C2006      C2007   1.412       .  A
C2007      C2008   1.407       .  A
C2007      F2012   1.357       .  S
C2008      C2009   1.405       .  A
C2008      F2024   1.357       .  S
C2009      C2010   1.411       .  A
C2010      F2013   1.359   1_554  S
C2011      C2014   1.408       .  A
C2011      C2018   1.402       .  A
C2014      C2015   1.407       .  A
C2014      F2019   1.358       .  S
C2015      C2016   1.411       .  A
C2015      F2021   1.357       .  S
C2016      C2017   1.415       .  A
C2017      C2018   1.398       .  A
C2017      F2020   1.358       .  S
C2018      F2022   1.358       .  S
C2025      C2026   1.406       .  A
C2025      C2030   1.398       .  A
C2025      F2043   1.358       .  S
C2026      C2031   1.480       .  S
C2026      C2027   1.407       .  A
C2027      C2028   1.397       .  A
C2027      F2032   1.358       .  S
C2028      C2029   1.404       .  A
C2028      F2044   1.358       .  S
C2029      C2030   1.406       .  A
C2030      F2033   1.358       .  S
C2031      C2034   1.406       .  A
C2031      C2038   1.401       .  A
C2034      C2035   1.401       .  A
C2034      F2039   1.358       .  S
C2035      C2036   1.411       .  A
C2035      F2041   1.358       .  S
C2036      C2037   1.414       .  A
C2037      C2038   1.393       .  A
C2037      F2040   1.358       .  S
C2038      F2042   1.358       .  S
C2045      C2046   1.408       .  A
C2045      C2050   1.402       .  A
C2045      F2063   1.358       .  S
C2046      C2051   1.485       .  S
C2046      C2047   1.402       .  A
C2047      C2048   1.395       .  A
C2047      F2052   1.358       .  S
C2048      C2049   1.416       .  A
C2048      F2064   1.358       .  S
C2049      C2050   1.410       .  A
C2050      F2053   1.358       .  S
C2051      C2054   1.407       .  A
C2051      C2058   1.407       .  A
C2054      C2055   1.398       .  A
C2054      F2059   1.358       .  S
C2055      C2056   1.406       .  A
C2055      F2061   1.358       .  S
C2056      C2057   1.407       .  A
C2057      C2058   1.400       .  A
C2057      F2060   1.358       .  S
C2058      F2062   1.358       .  S
C2065      C2066   1.403       .  A
C2065      C2070   1.403       .  A
C2065      F2083   1.358       .  S
C2066      C2071   1.473       .  S
C2066      C2067   1.399       .  A
C2067      C2068   1.394       .  A
C2067      F2072   1.358       .  S
C2068      C2069   1.413       .  A
C2068      F2084   1.358       .  S
C2069      C2070   1.411       .  A
C2070      F2073   1.358       .  S
C2071      C2074   1.398       .  A
C2071      C2078   1.404       .  A
C2074      C2075   1.391       .  A
C2074      F2079   1.358       .  S
C2075      C2076   1.413       .  A
C2075      F2081   1.358       .  S
C2076      C2077   1.411       .  A
C2077      C2078   1.405       .  A
C2077      F2080   1.358       .  S
C2078      F2082   1.357       .  S
C2085      C2086   1.408       .  A
C2085      C2090   1.398       .  A
C2085      F2103   1.358       .  S
C2086      C2091   1.493       .  S
C2086      C2087   1.408       .  A
C2087      C2088   1.405       .  A
C2087      F2092   1.357       .  S
C2088      C2089   1.409       .  A
C2088      F2104   1.358       .  S
C2089      C2090   1.405       .  A
C2090      F2093   1.358       .  S
C2091      C2094   1.409       .  A
C2091      C2098   1.406       .  A
C2094      C2095   1.408       .  A
C2094      F2099   1.358       .  S
C2095      C2096   1.411       .  A
C2095      F2101   1.357       .  S
C2096      C2097   1.409       .  A
C2097      C2098   1.398       .  A
C2097      F2100   1.358       .  S
C2098      F2102   1.358       .  S
C2105      C2106   1.408       .  A
C2105      C2110   1.407       .  A
C2105      F2123   1.358       .  S
C2106      C2111   1.489       .  S
C2106      C2107   1.402       .  A
C2107      C2108   1.399       .  A
C2107      F2112   1.358       .  S
C2108      C2109   1.414       .  A
C2108      F2124   1.358       .  S
C2109      C2110   1.412       .  A
C2110      F2113   1.358       .  S
C2111      C2114   1.403       .  A
C2111      C2118   1.410       .  A
C2114      C2115   1.399       .  A
C2114      F2119   1.358       .  S
C2115      C2116   1.411       .  A
C2115      F2121   1.359       .  S
C2116      C2117   1.405       .  A
C2117      C2118   1.407       .  A
C2117      F2120   1.357       .  S
C2118      F2122   1.357       .  S
C2125      C2126   1.408       .  A
C2125      C2130   1.402       .  A
C2125      F2143   1.358       .  S
C2126      C2131   1.485       .  S
C2126      C2127   1.402       .  A
C2127      C2128   1.396       .  A
C2127      F2132   1.358       .  S
C2128      C2129   1.416       .  A
C2128      F2144   1.358       .  S
C2129      C2130   1.409       .  A
C2130      F2133   1.358       .  S
C2131      C2134   1.403       .  A
C2131      C2138   1.408       .  A
C2134      C2135   1.397       .  A
C2134      F2139   1.358       .  S
C2135      C2136   1.413       .  A
C2135      F2141   1.358       .  S
C2136      C2137   1.408       .  A
C2137      C2138   1.401       .  A
C2137      F2140   1.358       .  S
C2138      F2142   1.358       .  S
C2145      C2146   1.405       .  A
C2145      C2150   1.397       .  A
C2145      F2163   1.358       .  S
C2146      C2151   1.484   1_556  S
C2146      C2147   1.408       .  A
C2147      C2148   1.399       .  A
C2147      F2152   1.358       .  S
C2148      C2149   1.407       .  A
C2148      F2164   1.358       .  S
C2149      C2150   1.408       .  A
C2150      F2153   1.358       .  S
C2151      C2154   1.402       .  A
C2151      C2158   1.409       .  A
C2154      C2155   1.393       .  A
C2154      F2159   1.358       .  S
C2155      C2156   1.414       .  A
C2155      F2161   1.358       .  S
C2156      C2157   1.409       .  A
C2157      C2158   1.402       .  A
C2157      F2160   1.358       .  S
C2158      F2162   1.358       .  S
C2165      C2166   1.404       .  A
C2165      C2170   1.395       .  A
C2165      F2183   1.358       .  S
C2166      C2171   1.490       .  S
C2166      C2167   1.409       .  A
C2167      C2168   1.409       .  A
C2167      F2172   1.357       .  S
C2168      C2169   1.409       .  A
C2168      F2184   1.357       .  S
C2169      C2170   1.409       .  A
C2170      F2173   1.359       .  S
C2171      C2174   1.403       .  A
C2171      C2178   1.407       .  A
C2174      C2175   1.395       .  A
C2174      F2179   1.358       .  S
C2175      C2176   1.414       .  A
C2175      F2181   1.358       .  S
C2176      C2177   1.416       .  A
C2177      C2178   1.409       .  A
C2177      F2180   1.358       .  S
C2178      F2182   1.358       .  S
C2185      C2186   1.409       .  A
C2185      C2190   1.406       .  A
C2185      F2203   1.358       .  S
C2186      C2191   1.488       .  S
C2186      C2187   1.402       .  A
C2187      C2188   1.395       .  A
C2187      F2192   1.359       .  S
C2188      C2189   1.416       .  A
C2188      F2204   1.358       .  S
C2189      C2190   1.410       .  A
C2190      F2193   1.357       .  S
C2191      C2194   1.406       .  A
C2191      C2198   1.408       .  A
C2194      C2195   1.397       .  A
C2194      F2199   1.358       .  S
C2195      C2196   1.409       .  A
C2195      F2201   1.359       .  S
C2196      C2197   1.408       .  A
C2197      C2198   1.404       .  A
C2197      F2200   1.357       .  S
C2198      F2202   1.357       .  S
C2205      C2206   1.402       .  A
C2205      C2210   1.398       .  A
C2205      F2223   1.358       .  S
C2206      C2211   1.481       .  S
C2206      C2207   1.403       .  A
C2207      C2208   1.403       .  A
C2207      F2212   1.358       .  S
C2208      C2209   1.414       .  A
C2208      F2224   1.358       .  S
C2209      C2210   1.411       .  A
C2210      F2213   1.357       .  S
C2211      C2214   1.402       .  A
C2211      C2218   1.403       .  A
C2214      C2215   1.399       .  A
C2214      F2219   1.358       .  S
C2215      C2216   1.414       .  A
C2215      F2221   1.358       .  S
C2216      C2217   1.414       .  A
C2217      C2218   1.403       .  A
C2217      F2220   1.358       .  S
C2218      F2222   1.358       .  S
C2225      C2226   1.403       .  A
C2225      C2230   1.396       .  A
C2225      F2243   1.358       .  S
C2226      C2231   1.487       .  S
C2226      C2227   1.409       .  A
C2227      C2228   1.403       .  A
C2227      F2232   1.358       .  S
C2228      C2229   1.409       .  A
C2228      F2244   1.357       .  S
C2229      C2230   1.414       .  A
C2230      F2233   1.358       .  S
C2231      C2234   1.410       .  A
C2231      C2238   1.403       .  A
C2234      C2235   1.404       .  A
C2234      F2239   1.358       .  S
C2235      C2236   1.408       .  A
C2235      F2241   1.358       .  S
C2236      C2237   1.413       .  A
C2237      C2238   1.395       .  A
C2237      F2240   1.358       .  S
C2238      F2242   1.358       .  S
C2245      C2246   1.401       .  A
C2245      C2250   1.394       .  A
C2245      F2263   1.358       .  S
C2246      C2251   1.480       .  S
C2246      C2247   1.407       .  A
C2247      C2248   1.402       .  A
C2247      F2252   1.358       .  S
C2248      C2249   1.408       .  A
C2248      F2264   1.358       .  S
C2249      C2250   1.412       .  A
C2250      F2253   1.358       .  S
C2251      C2254   1.404       .  A
C2251      C2258   1.402       .  A
C2254      C2255   1.399       .  A
C2254      F2259   1.358       .  S
C2255      C2256   1.413       .  A
C2255      F2261   1.358       .  S
C2256      C2257   1.414       .  A
C2257      C2258   1.398       .  A
C2257      F2260   1.358       .  S
C2258      F2262   1.358       .  S
C2265      C2266   1.406       .  A
C2265      C2270   1.401       .  A
C2265      F2283   1.358       .  S
C2266      C2271   1.481       .  S
C2266      C2267   1.401       .  A
C2267      C2268   1.394       .  A
C2267      F2272   1.358       .  S
C2268      C2269   1.414       .  A
C2268      F2284   1.358       .  S
C2269      C2270   1.413       .  A
C2270      F2273   1.358       .  S
C2271      C2274   1.401   1_554  A
C2271      C2278   1.409   1_554  A
C2274      C2275   1.394       .  A
C2274      F2279   1.358   1_556  S
C2275      C2276   1.412       .  A
C2275      F2281   1.359       .  S
C2276      C2277   1.405       .  A
C2277      C2278   1.402       .  A
C2277      F2280   1.357       .  S
C2278      F2282   1.358   1_556  S
C2285      C2286   1.403       .  A
C2285      C2290   1.400       .  A
C2285      F2303   1.358       .  S
C2286      C2291   1.485       .  S
C2286      C2287   1.405       .  A
C2287      C2288   1.403       .  A
C2287      F2292   1.358       .  S
C2288      C2289   1.412       .  A
C2288      F2304   1.358       .  S
C2289      C2290   1.414       .  A
C2290      F2293   1.358       .  S
C2291      C2294   1.404       .  A
C2291      C2298   1.404       .  A
C2294      C2295   1.400       .  A
C2294      F2299   1.358       .  S
C2295      C2296   1.412       .  A
C2295      F2301   1.358       .  S
C2296      C2297   1.412       .  A
C2297      C2298   1.403       .  A
C2297      F2300   1.358       .  S
C2298      F2302   1.358       .  S
C2305      C2306   1.399       .  A
C2305      C2310   1.395       .  A
C2305      F2323   1.358       .  S
C2306      C2311   1.477       .  S
C2306      C2307   1.405       .  A
C2307      C2308   1.401       .  A
C2307      F2312   1.358       .  S
C2308      C2309   1.409       .  A
C2308      F2324   1.358       .  S
C2309      C2310   1.415       .  A
C2310      F2313   1.358       .  S
C2311      C2314   1.406       .  A
C2311      C2318   1.398       .  A
C2314      C2315   1.405       .  A
C2314      F2319   1.358       .  S
C2315      C2316   1.410       .  A
C2315      F2321   1.358       .  S
C2316      C2317   1.414       .  A
C2317      C2318   1.393       .  A
C2317      F2320   1.358       .  S
C2318      F2322   1.358       .  S
C2325      C2326   1.401       .  A
C2325      C2330   1.399       .  A
C2325      F2343   1.358       .  S
C2326      C2331   1.472       .  S
C2326      C2327   1.400       .  A
C2327      C2328   1.397       .  A
C2327      F2332   1.358       .  S
C2328      C2329   1.414       .  A
C2328      F2344   1.358       .  S
C2329      C2330   1.414       .  A
C2330      F2333   1.358       .  S
C2331      C2334   1.400       .  A
C2331      C2338   1.401       .  A
C2334      C2335   1.396       .  A
C2334      F2339   1.358       .  S
C2335      C2336   1.413       .  A
C2335      F2341   1.358       .  S
C2336      C2337   1.414       .  A
C2337      C2338   1.398       .  A
C2337      F2340   1.358       .  S
C2338      F2342   1.358       .  S
C2345      C2346   1.400       .  A
C2345      C2350   1.393       .  A
C2345      F2363   1.358       .  S
C2346      C2351   1.474       .  S
C2346      C2347   1.403       .  A
C2347      C2348   1.403       .  A
C2347      F2352   1.358       .  S
C2348      C2349   1.412       .  A
C2348      F2364   1.358       .  S
C2349      C2350   1.413       .  A
C2350      F2353   1.358       .  S
C2351      C2354   1.400       .  A
C2351      C2358   1.403       .  A
C2354      C2355   1.393       .  A
C2354      F2359   1.358       .  S
C2355      C2356   1.412       .  A
C2355      F2361   1.358       .  S
C2356      C2357   1.412       .  A
C2357      C2358   1.403       .  A
C2357      F2360   1.358       .  S
C2358      F2362   1.358       .  S
C2365      C2366   1.409       .  A
C2365      C2370   1.404       .  A
C2365      F2383   1.358       .  S
C2366      C2371   1.480       .  S
C2366      C2367   1.401       .  A
C2367      C2368   1.393       .  A
C2367      F2372   1.358   1_554  S
C2368      C2369   1.410       .  A
C2368      F2384   1.358   1_554  S
C2369      C2370   1.406       .  A
C2370      F2373   1.357       .  S
C2371      C2374   1.401       .  A
C2371      C2378   1.406       .  A
C2374      C2375   1.395       .  A
C2374      F2379   1.359       .  S
C2375      C2376   1.414       .  A
C2375      F2381   1.358       .  S
C2376      C2377   1.410       .  A
C2377      C2378   1.402       .  A
C2377      F2380   1.357       .  S
C2378      F2382   1.358       .  S
C2385      C2386   1.402       .  A
C2385      C2390   1.396       .  A
C2385      F2403   1.358       .  S
C2386      C2391   1.483       .  S
C2386      C2387   1.408       .  A
C2387      C2388   1.404       .  A
C2387      F2392   1.358       .  S
C2388      C2389   1.408       .  A
C2388      F2404   1.358       .  S
C2389      C2390   1.412       .  A
C2390      F2393   1.358       .  S
C2391      C2394   1.405       .  A
C2391      C2398   1.404       .  A
C2394      C2395   1.399       .  A
C2394      F2399   1.358       .  S
C2395      C2396   1.409       .  A
C2395      F2401   1.358       .  S
C2396      C2397   1.410       .  A
C2397      C2398   1.401       .  A
C2397      F2400   1.358       .  S
C2398      F2402   1.358       .  S
C2405      C2406   1.409       .  A
C2405      C2410   1.401       .  A
C2405      F2423   1.358       .  S
C2406      C2411   1.485       .  S
C2406      C2407   1.404       .  A
C2407      C2408   1.397       .  A
C2407      F2412   1.358       .  S
C2408      C2409   1.411       .  A
C2408      F2424   1.358       .  S
C2409      C2410   1.406       .  A
C2410      F2413   1.358       .  S
C2411      C2414   1.407       .  A
C2411      C2418   1.403       .  A
C2414      C2415   1.400       .  A
C2414      F2419   1.358       .  S
C2415      C2416   1.411       .  A
C2415      F2421   1.358       .  S
C2416      C2417   1.414       .  A
C2417      C2418   1.397       .  A
C2417      F2420   1.358       .  S
C2418      F2422   1.358       .  S
C2425      C2426   1.401       .  A
C2425      C2430   1.397       .  A
C2425      F2443   1.358       .  S
C2426      C2431   1.481       .  S
C2426      C2427   1.404       .  A
C2427      C2428   1.402       .  A
C2427      F2432   1.357       .  S
C2428      C2429   1.411       .  A
C2428      F2444   1.358       .  S
C2429      C2430   1.415       .  A
C2430      F2433   1.358       .  S
C2431      C2434   1.401       .  A
C2431      C2438   1.404       .  A
C2434      C2435   1.398       .  A
C2434      F2439   1.358       .  S
C2435      C2436   1.415       .  A
C2435      F2441   1.358       .  S
C2436      C2437   1.413       .  A
C2437      C2438   1.404       .  A
C2437      F2440   1.357       .  S
C2438      F2442   1.358       .  S
C2445      C2446   1.404       .  A
C2445      C2450   1.399       .  A
C2445      F2463   1.358       .  S
C2446      C2451   1.485       .  S
C2446      C2447   1.406       .  A
C2447      C2448   1.405       .  A
C2447      F2452   1.358       .  S
C2448      C2449   1.410       .  A
C2448      F2464   1.358       .  S
C2449      C2450   1.409       .  A
C2450      F2453   1.358       .  S
C2451      C2454   1.405       .  A
C2451      C2458   1.406       .  A
C2454      C2455   1.403       .  A
C2454      F2459   1.357       .  S
C2455      C2456   1.409       .  A
C2455      F2461   1.358       .  S
C2456      C2457   1.407       .  A
C2457      C2458   1.399       .  A
C2457      F2460   1.358       .  S
C2458      F2462   1.358       .  S
C2465      C2466   1.405       .  A
C2465      C2470   1.402       .  A
C2465      F2483   1.357       .  S
C2466      C2471   1.489       .  S
C2466      C2467   1.405       .  A
C2467      C2468   1.401       .  A
C2467      F2472   1.358       .  S
C2468      C2469   1.415       .  A
C2468      F2484   1.358       .  S
C2469      C2470   1.411       .  A
C2470      F2473   1.357       .  S
C2471      C2474   1.408       .  A
C2471      C2478   1.401       .  A
C2474      C2475   1.406       .  A
C2474      F2479   1.358       .  S
C2475      C2476   1.410       .  A
C2475      F2481   1.357       .  S
C2476      C2477   1.418       .  A
C2477      C2478   1.397       .  A
C2477      F2480   1.358       .  S
C2478      F2482   1.358       .  S
C2485      C2486   1.405       .  A
C2485      C2490   1.399       .  A
C2485      F2503   1.358       .  S
C2486      C2491   1.486       .  S
C2486      C2487   1.406       .  A
C2487      C2488   1.401       .  A
C2487      F2492   1.358       .  S
C2488      C2489   1.408       .  A
C2488      F2504   1.358       .  S
C2489      C2490   1.412       .  A
C2490      F2493   1.358       .  S
C2491      C2494   1.402       .  A
C2491      C2498   1.406       .  A
C2494      C2495   1.398       .  A
C2494      F2499   1.358       .  S
C2495      C2496   1.416       .  A
C2495      F2501   1.358       .  S
C2496      C2497   1.413       .  A
C2497      C2498   1.402       .  A
C2497      F2500   1.358       .  S
C2498      F2502   1.358       .  S
C2505      C2506   1.407       .  A
C2505      C2510   1.400       .  A
C2505      F2523   1.358       .  S
C2506      C2511   1.482       .  S
C2506      C2507   1.403       .  A
C2507      C2508   1.397       .  A
C2507      F2512   1.358       .  S
C2508      C2509   1.411       .  A
C2508      F2524   1.358       .  S
C2509      C2510   1.407       .  A
C2510      F2513   1.357       .  S
C2511      C2514   1.409       .  A
C2511      C2518   1.402       .  A
C2514      C2515   1.402       .  A
C2514      F2519   1.358       .  S
C2515      C2516   1.407       .  A
C2515      F2521   1.358       .  S
C2516      C2517   1.410       .  A
C2517      C2518   1.394       .  A
C2517      F2520   1.358       .  S
C2518      F2522   1.358       .  S
C2525      C2526   1.408       .  A
C2525      C2530   1.402       .  A
C2525      F2543   1.358       .  S
C2526      C2531   1.485       .  S
C2526      C2527   1.402       .  A
C2527      C2528   1.394       .  A
C2527      F2532   1.358       .  S
C2528      C2529   1.415       .  A
C2528      F2544   1.358       .  S
C2529      C2530   1.412       .  A
C2530      F2533   1.358       .  S
C2531      C2534   1.407       .  A
C2531      C2538   1.408       .  A
C2534      C2535   1.401       .  A
C2534      F2539   1.358       .  S
C2535      C2536   1.408       .  A
C2535      F2541   1.358       .  S
C2536      C2537   1.405       .  A
C2537      C2538   1.397       .  A
C2537      F2540   1.358       .  S
C2538      F2542   1.358       .  S
C2545      C2546   1.403       .  A
C2545      C2550   1.401       .  A
C2545      F2563   1.357       .  S
C2546      C2551   1.474       .  S
C2546      C2547   1.401       .  A
C2547      C2548   1.397       .  A
C2547      F2552   1.358       .  S
C2548      C2549   1.410       .  A
C2548      F2564   1.358       .  S
C2549      C2550   1.409       .  A
C2550      F2553   1.358       .  S
C2551      C2554   1.401       .  A
C2551      C2558   1.402       .  A
C2554      C2555   1.397       .  A
C2554      F2559   1.358       .  S
C2555      C2556   1.412       .  A
C2555      F2561   1.358       .  S
C2556      C2557   1.410       .  A
C2557      C2558   1.401       .  A
C2557      F2560   1.358       .  S
C2558      F2562   1.357       .  S
C2565      C2566   1.401       .  A
C2565      C2570   1.397       .  A
C2565      F2583   1.358       .  S
C2566      C2571   1.481       .  S
C2566      C2567   1.407       .  A
C2567      C2568   1.402       .  A
C2567      F2572   1.358       .  S
C2568      C2569   1.408       .  A
C2568      F2584   1.358       .  S
C2569      C2570   1.413       .  A
C2570      F2573   1.358       .  S
C2571      C2574   1.407       .  A
C2571      C2578   1.402       .  A
C2574      C2575   1.402       .  A
C2574      F2579   1.358       .  S
C2575      C2576   1.410       .  A
C2575      F2581   1.358       .  S
C2576      C2577   1.411       .  A
C2577      C2578   1.395       .  A
C2577      F2580   1.358       .  S
C2578      F2582   1.358       .  S
C2585      C2586   1.406       .  A
C2585      C2590   1.403       .  A
C2585      F2603   1.358       .  S
C2586      C2591   1.476       .  S
C2586      C2587   1.399       .  A
C2587      C2588   1.395       .  A
C2587      F2592   1.358       .  S
C2588      C2589   1.412       .  A
C2588      F2604   1.358       .  S
C2589      C2590   1.408       .  A
C2590      F2593   1.358       .  S
C2591      C2594   1.403       .  A
C2591      C2598   1.402       .  A
C2594      C2595   1.400       .  A
C2594      F2599   1.358       .  S
C2595      C2596   1.409       .  A
C2595      F2601   1.358       .  S
C2596      C2597   1.410       .  A
C2597      C2598   1.399       .  A
C2597      F2600   1.358       .  S
C2598      F2602   1.358       .  S
C2605      C2606   1.403       .  A
C2605      C2610   1.402       .  A
C2605      F2623   1.358       .  S
C2606      C2611   1.477       .  S
C2606      C2607   1.403       .  A
C2607      C2608   1.396       .  A
C2607      F2612   1.358       .  S
C2608      C2609   1.409       .  A
C2608      F2624   1.358       .  S
C2609      C2610   1.412       .  A
C2610      F2613   1.358       .  S
C2611      C2614   1.402       .  A
C2611      C2618   1.405       .  A
C2614      C2615   1.399       .  A
C2614      F2619   1.358       .  S
C2615      C2616   1.411       .  A
C2615      F2621   1.358       .  S
C2616      C2617   1.407       .  A
C2617      C2618   1.399       .  A
C2617      F2620   1.358   1_554  S
C2618      F2622   1.358       .  S
C2625      C2626   1.410       .  A
C2625      C2630   1.407       .  A
C2625      F2643   1.358       .  S
C2626      C2631   1.494       .  S
C2626      C2627   1.402       .  A
C2627      C2628   1.399       .  A
C2627      F2632   1.358       .  S
C2628      C2629   1.418       .  A
C2628      F2644   1.358       .  S
C2629      C2630   1.412       .  A
C2630      F2633   1.358       .  S
C2631      C2634   1.407       .  A
C2631      C2638   1.408       .  A
C2634      C2635   1.404       .  A
C2634      F2639   1.358       .  S
C2635      C2636   1.411       .  A
C2635      F2641   1.358       .  S
C2636      C2637   1.412       .  A
C2637      C2638   1.403       .  A
C2637      F2640   1.358       .  S
C2638      F2642   1.358       .  S
C2645      C2646   1.405       .  A
C2645      C2650   1.400       .  A
C2645      F2663   1.358       .  S
C2646      C2651   1.484       .  S
C2646      C2647   1.404       .  A
C2647      C2648   1.399       .  A
C2647      F2652   1.358       .  S
C2648      C2649   1.412       .  A
C2648      F2664   1.358       .  S
C2649      C2650   1.413       .  A
C2650      F2653   1.358       .  S
C2651      C2654   1.405       .  A
C2651      C2658   1.406       .  A
C2654      C2655   1.400       .  A
C2654      F2659   1.358       .  S
C2655      C2656   1.411       .  A
C2655      F2661   1.358       .  S
C2656      C2657   1.407       .  A
C2657      C2658   1.399       .  A
C2657      F2660   1.356       .  S
C2658      F2662   1.358       .  S
C2665      C2666   1.405       .  A
C2665      C2670   1.397       .  A
C2665      F2683   1.358       .  S
C2666      C2671   1.496       .  S
C2666      C2667   1.412       .  A
C2667      C2668   1.408       .  A
C2667      F2672   1.358       .  S
C2668      C2669   1.408       .  A
C2668      F2684   1.357       .  S
C2669      C2670   1.411       .  A
C2670      F2673   1.358       .  S
C2671      C2674   1.409       .  A
C2671      C2678   1.409       .  A
C2674      C2675   1.404       .  A
C2674      F2679   1.358       .  S
C2675      C2676   1.409       .  A
C2675      F2681   1.358       .  S
C2676      C2677   1.409       .  A
C2677      C2678   1.400       .  A
C2677      F2680   1.358       .  S
C2678      F2682   1.358       .  S
C2685      C2686   1.406       .  A
C2685      C2690   1.404       .  A
C2685      F2703   1.358       .  S
C2686      C2691   1.480       .  S
C2686      C2687   1.399       .  A
C2687      C2688   1.395       .  A
C2687      F2692   1.358       .  S
C2688      C2689   1.416       .  A
C2688      F2704   1.358       .  S
C2689      C2690   1.412       .  A
C2690      F2693   1.357       .  S
C2691      C2694   1.402       .  A
C2691      C2698   1.405       .  A
C2694      C2695   1.398       .  A
C2694      F2699   1.358       .  S
C2695      C2696   1.411       .  A
C2695      F2701   1.358       .  S
C2696      C2697   1.410       .  A
C2697      C2698   1.400       .  A
C2697      F2700   1.358       .  S
C2698      F2702   1.358       .  S
C2705      C2706   1.404       .  A
C2705      C2710   1.395       .  A
C2705      F2723   1.358       .  S
C2706      C2711   1.473       .  S
C2706      C2707   1.402       .  A
C2707      C2708   1.397       .  A
C2707      F2712   1.358       .  S
C2708      C2709   1.411       .  A
C2708      F2724   1.358       .  S
C2709      C2710   1.408       .  A
C2710      F2713   1.358       .  S
C2711      C2714   1.398       .  A
C2711      C2718   1.405       .  A
C2714      C2715   1.391       .  A
C2714      F2719   1.358       .  S
C2715      C2716   1.414       .  A
C2715      F2721   1.358       .  S
C2716      C2717   1.410       .  A
C2717      C2718   1.401       .  A
C2717      F2720   1.358       .  S
C2718      F2722   1.358       .  S
C2725      C2726   1.406       .  A
C2725      C2730   1.402       .  A
C2725      F2743   1.358       .  S
C2726      C2731   1.481       .  S
C2726      C2727   1.402       .  A
C2727      C2728   1.393       .  A
C2727      F2732   1.358       .  S
C2728      C2729   1.412       .  A
C2728      F2744   1.358   1_554  S
C2729      C2730   1.413       .  A
C2730      F2733   1.358       .  S
C2731      C2734   1.405       .  A
C2731      C2738   1.406       .  A
C2734      C2735   1.400       .  A
C2734      F2739   1.358       .  S
C2735      C2736   1.411       .  A
C2735      F2741   1.358       .  S
C2736      C2737   1.407       .  A
C2737      C2738   1.397       .  A
C2737      F2740   1.358       .  S
C2738      F2742   1.358       .  S
C2745      C2746   1.400       .  A
C2745      C2750   1.396   1_554  A
C2745      F2763   1.358   1_554  S
C2746      C2751   1.474       .  S
C2746      C2747   1.402       .  A
C2747      C2748   1.399       .  A
C2747      F2752   1.358       .  S
C2748      C2749   1.414       .  A
C2748      F2764   1.358       .  S
C2749      C2750   1.412   1_554  A
C2750      F2753   1.358       .  S
C2751      C2754   1.402       .  A
C2751      C2758   1.400       .  A
C2754      C2755   1.399       .  A
C2754      F2759   1.358       .  S
C2755      C2756   1.413       .  A
C2755      F2761   1.358       .  S
C2756      C2757   1.414       .  A
C2757      C2758   1.398       .  A
C2757      F2760   1.358       .  S
C2758      F2762   1.358       .  S
C2765      C2766   1.405       .  A
C2765      C2770   1.400       .  A
C2765      F2783   1.358       .  S
C2766      C2771   1.477       .  S
C2766      C2767   1.404       .  A
C2767      C2768   1.395       .  A
C2767      F2772   1.358       .  S
C2768      C2769   1.406       .  A
C2768      F2784   1.358       .  S
C2769      C2770   1.408       .  A
C2770      F2773   1.358       .  S
C2771      C2774   1.402       .  A
C2771      C2778   1.404       .  A
C2774      C2775   1.399       .  A
C2774      F2779   1.358       .  S
C2775      C2776   1.413       .  A
C2775      F2781   1.358       .  S
C2776      C2777   1.411       .  A
C2777      C2778   1.396       .  A
C2777      F2780   1.358       .  S
C2778      F2782   1.358       .  S
C2785      C2786   1.408       .  A
C2785      C2790   1.404       .  A
C2785      F2803   1.358       .  S
C2786      C2791   1.483       .  S
C2786      C2787   1.404       .  A
C2787      C2788   1.396       .  A
C2787      F2792   1.358       .  S
C2788      C2789   1.405       .  A
C2788      F2804   1.358       .  S
C2789      C2790   1.406       .  A
C2790      F2793   1.358       .  S
C2791      C2794   1.404       .  A
C2791      C2798   1.403       .  A
C2794      C2795   1.401       .  A
C2794      F2799   1.358       .  S
C2795      C2796   1.414       .  A
C2795      F2801   1.358       .  S
C2796      C2797   1.414       .  A
C2797      C2798   1.398       .  A
C2797      F2800   1.358       .  S
C2798      F2802   1.358       .  S
C2805      C2806   1.406       .  A
C2805      C2810   1.402       .  A
C2805      F2823   1.358       .  S
C2806      C2811   1.484       .  S
C2806      C2807   1.400       .  A
C2807      C2808   1.400       .  A
C2807      F2812   1.358       .  S
C2808      C2809   1.418       .  A
C2808      F2824   1.358       .  S
C2809      C2810   1.411       .  A
C2810      F2813   1.357       .  S
C2811      C2814   1.402       .  A
C2811      C2818   1.410       .  A
C2814      C2815   1.395       .  A
C2814      F2819   1.358       .  S
C2815      C2816   1.407       .  A
C2815      F2821   1.359       .  S
C2816      C2817   1.406       .  A
C2817      C2818   1.406       .  A
C2817      F2820   1.358       .  S
C2818      F2822   1.358       .  S
C2825      C2826   1.404       .  A
C2825      C2830   1.399       .  A
C2825      F2843   1.358       .  S
C2826      C2831   1.486       .  S
C2826      C2827   1.406       .  A
C2827      C2828   1.404       .  A
C2827      F2832   1.358       .  S
C2828      C2829   1.411       .  A
C2828      F2844   1.358       .  S
C2829      C2830   1.411       .  A
C2830      F2833   1.358       .  S
C2831      C2834   1.406       .  A
C2831      C2838   1.402       .  A
C2834      C2835   1.404       .  A
C2834      F2839   1.358       .  S
C2835      C2836   1.412       .  A
C2835      F2841   1.358       .  S
C2836      C2837   1.415       .  A
C2837      C2838   1.399       .  A
C2837      F2840   1.358       .  S
C2838      F2842   1.358       .  S
C2845      C2846   1.403       .  A
C2845      C2850   1.400       .  A
C2845      F2863   1.358       .  S
C2846      C2851   1.481       .  S
C2846      C2847   1.405       .  A
C2847      C2848   1.399       .  A
C2847      F2852   1.358       .  S
C2848      C2849   1.409       .  A
C2848      F2864   1.358       .  S
C2849      C2850   1.410       .  A
C2850      F2853   1.358       .  S
C2851      C2854   1.406       .  A
C2851      C2858   1.404       .  A
C2854      C2855   1.402       .  A
C2854      F2859   1.358       .  S
C2855      C2856   1.408       .  A
C2855      F2861   1.358       .  S
C2856      C2857   1.408       .  A
C2857      C2858   1.395       .  A
C2857      F2860   1.359       .  S
C2858      F2862   1.358       .  S
C2865      C2866   1.408   1_554  A
C2865      C2870   1.406       .  A
C2865      F2883   1.358       .  S
C2866      C2871   1.486       .  S
C2866      C2867   1.402       .  A
C2867      C2868   1.396   1_556  A
C2867      F2872   1.358       .  S
C2868      C2869   1.414       .  A
C2868      F2884   1.358   1_554  S
C2869      C2870   1.410       .  A
C2870      F2873   1.358       .  S
C2871      C2874   1.404       .  A
C2871      C2878   1.405       .  A
C2874      C2875   1.398       .  A
C2874      F2879   1.358   1_556  S
C2875      C2876   1.413       .  A
C2875      F2881   1.358       .  S
C2876      C2877   1.413       .  A
C2877      C2878   1.403       .  A
C2877      F2880   1.358       .  S
C2878      F2882   1.358       .  S
C2885      C2886   1.401       .  A
C2885      C2890   1.396       .  A
C2885      F2903   1.358       .  S
C2886      C2891   1.482       .  S
C2886      C2887   1.407       .  A
C2887      C2888   1.404       .  A
C2887      F2892   1.358       .  S
C2888      C2889   1.409       .  A
C2888      F2904   1.357       .  S
C2889      C2890   1.413       .  A
C2890      F2893   1.358       .  S
C2891      C2894   1.402       .  A
C2891      C2898   1.410       .  A
C2894      C2895   1.396       .  A
C2894      F2899   1.358   1_556  S
C2895      C2896   1.407       .  A
C2895      F2901   1.359   1_556  S
C2896      C2897   1.403       .  A
C2897      C2898   1.404       .  A
C2897      F2900   1.358       .  S
C2898      F2902   1.358       .  S
C2905      C2906   1.409       .  A
C2905      C2910   1.407       .  A
C2905      F2923   1.358       .  S
C2906      C2911   1.503       .  S
C2906      C2907   1.410       .  A
C2907      C2908   1.405       .  A
C2907      F2912   1.358       .  S
C2908      C2909   1.412       .  A
C2908      F2924   1.358       .  S
C2909      C2910   1.412       .  A
C2910      F2913   1.358       .  S
C2911      C2914   1.413       .  A
C2911      C2918   1.406       .  A
C2914      C2915   1.410       .  A
C2914      F2919   1.357       .  S
C2915      C2916   1.409       .  A
C2915      F2921   1.358       .  S
C2916      C2917   1.413       .  A
C2917      C2918   1.401       .  A
C2917      F2920   1.358       .  S
C2918      F2922   1.358       .  S
C2925      C2926   1.405       .  A
C2925      C2930   1.406       .  A
C2925      F2943   1.357       .  S
C2926      C2931   1.479       .  S
C2926      C2927   1.400       .  A
C2927      C2928   1.395       .  A
C2927      F2932   1.359       .  S
C2928      C2929   1.415       .  A
C2928      F2944   1.358       .  S
C2929      C2930   1.412       .  A
C2930      F2933   1.357       .  S
C2931      C2934   1.405       .  A
C2931      C2938   1.400       .  A
C2934      C2935   1.405       .  A
C2934      F2939   1.357       .  S
C2935      C2936   1.410       .  A
C2935      F2941   1.357       .  S
C2936      C2937   1.414       .  A
C2937      C2938   1.395       .  A
C2937      F2940   1.358       .  S
C2938      F2942   1.358       .  S
C2945      C2946   1.401       .  A
C2945      C2950   1.397       .  A
C2945      F2963   1.358       .  S
C2946      C2951   1.475       .  S
C2946      C2947   1.404       .  A
C2947      C2948   1.397       .  A
C2947      F2952   1.358       .  S
C2948      C2949   1.409       .  A
C2948      F2964   1.357       .  S
C2949      C2950   1.411       .  A
C2950      F2953   1.358       .  S
C2951      C2954   1.398       .  A
C2951      C2958   1.407       .  A
C2954      C2955   1.390       .  A
C2954      F2959   1.358       .  S
C2955      C2956   1.413       .  A
C2955      F2961   1.358       .  S
C2956      C2957   1.408       .  A
C2957      C2958   1.403       .  A
C2957      F2960   1.357       .  S
C2958      F2962   1.358       .  S
C2965      C2966   1.406       .  A
C2965      C2970   1.404       .  A
C2965      F2983   1.358       .  S
C2966      C2971   1.477       .  S
C2966      C2967   1.398       .  A
C2967      C2968   1.393       .  A
C2967      F2972   1.358       .  S
C2968      C2969   1.416       .  A
C2968      F2984   1.358       .  S
C2969      C2970   1.410       .  A
C2970      F2973   1.358       .  S
C2971      C2974   1.404       .  A
C2971      C2978   1.401       .  A
C2974      C2975   1.399       .  A
C2974      F2979   1.358       .  S
C2975      C2976   1.410       .  A
C2975      F2981   1.357       .  S
C2976      C2977   1.411       .  A
C2977      C2978   1.398       .  A
C2977      F2980   1.358       .  S
C2978      F2982   1.358       .  S
C2985      C2986   1.401       .  A
C2985      C2990   1.397       .  A
C2985      F3003   1.358       .  S
C2986      C2991   1.483       .  S
C2986      C2987   1.408       .  A
C2987      C2988   1.404       .  A
C2987      F2992   1.358       .  S
C2988      C2989   1.408       .  A
C2988      F3004   1.357       .  S
C2989      C2990   1.414       .  A
C2990      F2993   1.358       .  S
C2991      C2994   1.401       .  A
C2991      C2998   1.406       .  A
C2994      C2995   1.396       .  A
C2994      F2999   1.358       .  S
C2995      C2996   1.414       .  A
C2995      F3001   1.358       .  S
C2996      C2997   1.411       .  A
C2997      C2998   1.403       .  A
C2997      F3000   1.358       .  S
C2998      F3002   1.358       .  S
C3005      C3006   1.404       .  A
C3005      C3010   1.405       .  A
C3005      F3023   1.358       .  S
C3006      C3011   1.478       .  S
C3006      C3007   1.400       .  A
C3007      C3008   1.393       .  A
C3007      F3012   1.359       .  S
C3008      C3009   1.413       .  A
C3008      F3024   1.358       .  S
C3009      C3010   1.413       .  A
C3010      F3013   1.358       .  S
C3011      C3014   1.401       .  A
C3011      C3018   1.404       .  A
C3014      C3015   1.395       .  A
C3014      F3019   1.358       .  S
C3015      C3016   1.411       .  A
C3015      F3021   1.358       .  S
C3016      C3017   1.411       .  A
C3017      C3018   1.403       .  A
C3017      F3020   1.358       .  S
C3018      F3022   1.358       .  S
C3025      C3026   1.401       .  A
C3025      C3030   1.398       .  A
C3025      F3043   1.358       .  S
C3026      C3031   1.479       .  S
C3026      C3027   1.408       .  A
C3027      C3028   1.404       .  A
C3027      F3032   1.358       .  S
C3028      C3029   1.404       .  A
C3028      F3044   1.357       .  S
C3029      C3030   1.407       .  A
C3030      F3033   1.358       .  S
C3031      C3034   1.403       .  A
C3031      C3038   1.405       .  A
C3034      C3035   1.396       .  A
C3034      F3039   1.358       .  S
C3035      C3036   1.405       .  A
C3035      F3041   1.358       .  S
C3036      C3037   1.409       .  A
C3037      C3038   1.405       .  A
C3037      F3040   1.358       .  S
C3038      F3042   1.358       .  S
C3045      C3046   1.402   1_554  A
C3045      C3050   1.395       .  A
C3045      F3063   1.358   1_554  S
C3046      C3051   1.485       .  S
C3046      C3047   1.407   1_556  A
C3047      C3048   1.406       .  A
C3047      F3052   1.358       .  S
C3048      C3049   1.412       .  A
C3048      F3064   1.358       .  S
C3049      C3050   1.412       .  A
C3050      F3053   1.358       .  S
C3051      C3054   1.406       .  A
C3051      C3058   1.406       .  A
C3054      C3055   1.403       .  A
C3054      F3059   1.358       .  S
C3055      C3056   1.409       .  A
C3055      F3061   1.358       .  S
C3056      C3057   1.407       .  A
C3057      C3058   1.399       .  A
C3057      F3060   1.358       .  S
C3058      F3062   1.358       .  S
C3065      C3066   1.405       .  A
C3065      C3070   1.398       .  A
C3065      F3083   1.358       .  S
C3066      C3071   1.478       .  S
C3066      C3067   1.403       .  A
C3067      C3068   1.397       .  A
C3067      F3072   1.358       .  S
C3068      C3069   1.409       .  A
C3068      F3084   1.358       .  S
C3069      C3070   1.409       .  A
C3070      F3073   1.358       .  S
C3071      C3074   1.401       .  A
C3071      C3078   1.406       .  A
C3074      C3075   1.395       .  A
C3074      F3079   1.358       .  S
C3075      C3076   1.414       .  A
C3075      F3081   1.358       .  S
C3076      C3077   1.409       .  A
C3077      C3078   1.399       .  A
C3077      F3080   1.358       .  S
C3078      F3082   1.358       .  S
C3085      C3086   1.405       .  A
C3085      C3090   1.397       .  A
C3085      F3103   1.358       .  S
C3086      C3091   1.487       .  S
C3086      C3087   1.407       .  A
C3087      C3088   1.404       .  A
C3087      F3092   1.358       .  S
C3088      C3089   1.410       .  A
C3088      F3104   1.358       .  S
C3089      C3090   1.410       .  A
C3090      F3093   1.358       .  S
C3091      C3094   1.407       .  A
C3091      C3098   1.403       .  A
C3094      C3095   1.406       .  A
C3094      F3099   1.358       .  S
C3095      C3096   1.413       .  A
C3095      F3101   1.358       .  S
C3096      C3097   1.412       .  A
C3097      C3098   1.394       .  A
C3097      F3100   1.358       .  S
C3098      F3102   1.358       .  S
C3105      C3106   1.397       .  A
C3105      C3110   1.393       .  A
C3105      F3123   1.358       .  S
C3106      C3111   1.471       .  S
C3106      C3107   1.405       .  A
C3107      C3108   1.401       .  A
C3107      F3112   1.358       .  S
C3108      C3109   1.407       .  A
C3108      F3124   1.358       .  S
C3109      C3110   1.413       .  A
C3110      F3113   1.358       .  S
C3111      C3114   1.398       .  A
C3111      C3118   1.405       .  A
C3114      C3115   1.392       .  A
C3114      F3119   1.359       .  S
C3115      C3116   1.412       .  A
C3115      F3121   1.359       .  S
C3116      C3117   1.407       .  A
C3117      C3118   1.404       .  A
C3117      F3120   1.357       .  S
C3118      F3122   1.357       .  S
C3125      C3126   1.402       .  A
C3125      C3130   1.396       .  A
C3125      F3143   1.358       .  S
C3126      C3131   1.476       .  S
C3126      C3127   1.403       .  A
C3127      C3128   1.398       .  A
C3127      F3132   1.358       .  S
C3128      C3129   1.411       .  A
C3128      F3144   1.358       .  S
C3129      C3130   1.412       .  A
C3130      F3133   1.358       .  S
C3131      C3134   1.405       .  A
C3131      C3138   1.402       .  A
C3134      C3135   1.398       .  A
C3134      F3139   1.358       .  S
C3135      C3136   1.407       .  A
C3135      F3141   1.358       .  S
C3136      C3137   1.410       .  A
C3137      C3138   1.396       .  A
C3137      F3140   1.358       .  S
C3138      F3142   1.358       .  S
C3145      C3146   1.401       .  A
C3145      C3150   1.398       .  A
C3145      F3163   1.358       .  S
C3146      C3151   1.486       .  S
C3146      C3147   1.409       .  A
C3147      C3148   1.405       .  A
C3147      F3152   1.358       .  S
C3148      C3149   1.409       .  A
C3148      F3164   1.357       .  S
C3149      C3150   1.416       .  A
C3150      F3153   1.358       .  S
C3151      C3154   1.399       .  A
C3151      C3158   1.410       .  A
C3154      C3155   1.393       .  A
C3154      F3159   1.358       .  S
C3155      C3156   1.413       .  A
C3155      F3161   1.358       .  S
C3156      C3157   1.410       .  A
C3157      C3158   1.410       .  A
C3157      F3160   1.358       .  S
C3158      F3162   1.358       .  S
C3165      C3166   1.405       .  A
C3165      C3170   1.398       .  A
C3165      F3183   1.358       .  S
C3166      C3171   1.485       .  S
C3166      C3167   1.406   1_545  A
C3167      C3168   1.402       .  A
C3167      F3172   1.358       .  S
C3168      C3169   1.410   1_565  A
C3168      F3184   1.358       .  S
C3169      C3170   1.408       .  A
C3170      F3173   1.358       .  S
C3171      C3174   1.406   1_545  A
C3171      C3178   1.403       .  A
C3174      C3175   1.400       .  A
C3174      F3179   1.357       .  S
C3175      C3176   1.410   1_565  A
C3175      F3181   1.358       .  S
C3176      C3177   1.415       .  A
C3177      C3178   1.398       .  A
C3177      F3180   1.358       .  S
C3178      F3182   1.358       .  S
C3185      C3186   1.404   1_565  A
C3185      C3190   1.400       .  A
C3185      F3203   1.358       .  S
C3186      C3191   1.485       .  S
C3186      C3187   1.407       .  A
C3187      C3188   1.402       .  A
C3187      F3192   1.357       .  S
C3188      C3189   1.406       .  A
C3188      F3204   1.358       .  S
C3189      C3190   1.411   1_545  A
C3190      F3193   1.359       .  S
C3191      C3194   1.406   1_545  A
C3191      C3198   1.403       .  A
C3194      C3195   1.403       .  A
C3194      F3199   1.358       .  S
C3195      C3196   1.410   1_565  A
C3195      F3201   1.357       .  S
C3196      C3197   1.413       .  A
C3197      C3198   1.400       .  A
C3197      F3200   1.358       .  S
C3198      F3202   1.358       .  S
C3205      C3206   1.410       .  A
C3205      C3210   1.408       .  A
C3205      F3223   1.358       .  S
C3206      C3211   1.495       .  S
C3206      C3207   1.406       .  A
C3207      C3208   1.399       .  A
C3207      F3212   1.358       .  S
C3208      C3209   1.412       .  A
C3208      F3224   1.358       .  S
C3209      C3210   1.411       .  A
C3210      F3213   1.358       .  S
C3211      C3214   1.407       .  A
C3211      C3218   1.408       .  A
C3214      C3215   1.402       .  A
C3214      F3219   1.358       .  S
C3215      C3216   1.412       .  A
C3215      F3221   1.358       .  S
C3216      C3217   1.411       .  A
C3217      C3218   1.405       .  A
C3217      F3220   1.358       .  S
C3218      F3222   1.358       .  S
C3225      C3226   1.407   1_565  A
C3225      C3230   1.401       .  A
C3225      F3243   1.358       .  S
C3226      C3231   1.491       .  S
C3226      C3227   1.406       .  A
C3227      C3228   1.400       .  A
C3227      F3232   1.358       .  S
C3228      C3229   1.413       .  A
C3228      F3244   1.358       .  S
C3229      C3230   1.411   1_545  A
C3230      F3233   1.358       .  S
C3231      C3234   1.407       .  A
C3231      C3238   1.404       .  A
C3234      C3235   1.402       .  A
C3234      F3239   1.358   1_545  S
C3235      C3236   1.412       .  A
C3235      F3241   1.358   1_545  S
C3236      C3237   1.415       .  A
C3237      C3238   1.400       .  A
C3237      F3240   1.358       .  S
C3238      F3242   1.358       .  S
C3245      C3246   1.401       .  A
C3245      C3250   1.394       .  A
C3245      F3263   1.358       .  S
C3246      C3251   1.484       .  S
C3246      C3247   1.408       .  A
C3247      C3248   1.405       .  A
C3247      F3252   1.358       .  S
C3248      C3249   1.411       .  A
C3248      F3264   1.358       .  S
C3249      C3250   1.413       .  A
C3250      F3253   1.358       .  S
C3251      C3254   1.401       .  A
C3251      C3258   1.410       .  A
C3254      C3255   1.395       .  A
C3254      F3259   1.359       .  S
C3255      C3256   1.414       .  A
C3255      F3261   1.359       .  S
C3256      C3257   1.406       .  A
C3257      C3258   1.405       .  A
C3257      F3260   1.357       .  S
C3258      F3262   1.357       .  S
C3265      C3266   1.404       .  A
C3265      C3270   1.402       .  A
C3265      F3283   1.357       .  S
C3266      C3271   1.481       .  S
C3266      C3267   1.401       .  A
C3267      C3268   1.398       .  A
C3267      F3272   1.358       .  S
C3268      C3269   1.416       .  A
C3268      F3284   1.358       .  S
C3269      C3270   1.411       .  A
C3270      F3273   1.357       .  S
C3271      C3274   1.402       .  A
C3271      C3278   1.404       .  A
C3274      C3275   1.399       .  A
C3274      F3279   1.358       .  S
C3275      C3276   1.414       .  A
C3275      F3281   1.358       .  S
C3276      C3277   1.412       .  A
C3277      C3278   1.402       .  A
C3277      F3280   1.357       .  S
C3278      F3282   1.358       .  S
C3285      C3286   1.405   1_545  A
C3285      C3290   1.405       .  A
C3285      F3303   1.357       .  S
C3286      C3291   1.490       .  S
C3286      C3287   1.404       .  A
C3287      C3288   1.401       .  A
C3287      F3292   1.358       .  S
C3288      C3289   1.417       .  A
C3288      F3304   1.358       .  S
C3289      C3290   1.412   1_565  A
C3290      F3293   1.357       .  S
C3291      C3294   1.405       .  A
C3291      C3298   1.408   1_565  A
C3294      C3295   1.401       .  A
C3294      F3299   1.358       .  S
C3295      C3296   1.412       .  A
C3295      F3301   1.358       .  S
C3296      C3297   1.408   1_565  A
C3297      C3298   1.405       .  A
C3297      F3300   1.357       .  S
C3298      F3302   1.357       .  S
C3305      C3306   1.408       .  A
C3305      C3310   1.402       .  A
C3305      F3323   1.358       .  S
C3306      C3311   1.484       .  S
C3306      C3307   1.403   1_545  A
C3307      C3308   1.395       .  A
C3307      F3312   1.359       .  S
C3308      C3309   1.413       .  A
C3308      F3324   1.357       .  S
C3309      C3310   1.407   1_565  A
C3310      F3313   1.357       .  S
C3311      C3314   1.405   1_545  A
C3311      C3318   1.406       .  A
C3314      C3315   1.396       .  A
C3314      F3319   1.358       .  S
C3315      C3316   1.412   1_565  A
C3315      F3321   1.358       .  S
C3316      C3317   1.410       .  A
C3317      C3318   1.400       .  A
C3317      F3320   1.358       .  S
C3318      F3322   1.358       .  S
C3325      C3326   1.401       .  A
C3325      C3330   1.396       .  A
C3325      F3343   1.358       .  S
C3326      C3331   1.478       .  S
C3326      C3327   1.408       .  A
C3327      C3328   1.403       .  A
C3327      F3332   1.357       .  S
C3328      C3329   1.404       .  A
C3328      F3344   1.358       .  S
C3329      C3330   1.409       .  A
C3330      F3333   1.359       .  S
C3331      C3334   1.399       .  A
C3331      C3338   1.406       .  A
C3334      C3335   1.393       .  A
C3334      F3339   1.359       .  S
C3335      C3336   1.414       .  A
C3335      F3341   1.358       .  S
C3336      C3337   1.411       .  A
C3337      C3338   1.407       .  A
C3337      F3340   1.357       .  S
C3338      F3342   1.357       .  S
C3345      C3346   1.404   1_565  A
C3345      C3350   1.393       .  A
C3345      F3363   1.358       .  S
C3346      C3351   1.488       .  S
C3346      C3347   1.410       .  A
C3347      C3348   1.403       .  A
C3347      F3352   1.358       .  S
C3348      C3349   1.409       .  A
C3348      F3364   1.358       .  S
C3349      C3350   1.414   1_545  A
C3350      F3353   1.358       .  S
C3351      C3354   1.408   1_546  A
C3351      C3358   1.408   1_556  A
C3354      C3355   1.397       .  A
C3354      F3359   1.358       .  S
C3355      C3356   1.407   1_565  A
C3355      F3361   1.358       .  S
C3356      C3357   1.409       .  A
C3357      C3358   1.400       .  A
C3357      F3360   1.358       .  S
C3358      F3362   1.358   1_554  S
C3365      C3366   1.403       .  A
C3365      C3370   1.398       .  A
C3365      F3383   1.358       .  S
C3366      C3371   1.477       .  S
C3366      C3367   1.404   1_545  A
C3367      C3368   1.397       .  A
C3367      F3372   1.358       .  S
C3368      C3369   1.409   1_565  A
C3368      F3384   1.358       .  S
C3369      C3370   1.410       .  A
C3370      F3373   1.358       .  S
C3371      C3374   1.405       .  A
C3371      C3378   1.400   1_545  A
C3374      C3375   1.400       .  A
C3374      F3379   1.358       .  S
C3375      C3376   1.411       .  A
C3375      F3381   1.358       .  S
C3376      C3377   1.415   1_545  A
C3377      C3378   1.394       .  A
C3377      F3380   1.358       .  S
C3378      F3382   1.358       .  S
C3385      C3386   1.404       .  A
C3385      C3390   1.398       .  A
C3385      F3403   1.358       .  S
C3386      C3391   1.478       .  S
C3386      C3387   1.403       .  A
C3387      C3388   1.398       .  A
C3387      F3392   1.358       .  S
C3388      C3389   1.410       .  A
C3388      F3404   1.358       .  S
C3389      C3390   1.409       .  A
C3390      F3393   1.356       .  S
C3391      C3394   1.401       .  A
C3391      C3398   1.404       .  A
C3394      C3395   1.396       .  A
C3394      F3399   1.358       .  S
C3395      C3396   1.413       .  A
C3395      F3401   1.358       .  S
C3396      C3397   1.412       .  A
C3397      C3398   1.401       .  A
C3397      F3400   1.358       .  S
C3398      F3402   1.358       .  S
C3405      C3406   1.404   1_565  A
C3405      C3410   1.397       .  A
C3405      F3423   1.358       .  S
C3406      C3411   1.470       .  S
C3406      C3407   1.400       .  A
C3407      C3408   1.397       .  A
C3407      F3412   1.358       .  S
C3408      C3409   1.409       .  A
C3408      F3424   1.358       .  S
C3409      C3410   1.406   1_545  A
C3410      F3413   1.358       .  S
C3411      C3414   1.402   1_545  A
C3411      C3418   1.401       .  A
C3414      C3415   1.395       .  A
C3414      F3419   1.358       .  S
C3415      C3416   1.409   1_565  A
C3415      F3421   1.358       .  S
C3416      C3417   1.411       .  A
C3417      C3418   1.398       .  A
C3417      F3420   1.358       .  S
C3418      F3422   1.358       .  S
C3425      C3426   1.402   1_565  A
C3425      C3430   1.395       .  A
C3425      F3443   1.358       .  S
C3426      C3431   1.478       .  S
C3426      C3427   1.406       .  A
C3427      C3428   1.399       .  A
C3427      F3432   1.357       .  S
C3428      C3429   1.406       .  A
C3428      F3444   1.358       .  S
C3429      C3430   1.412   1_545  A
C3430      F3433   1.359       .  S
C3431      C3434   1.404   1_545  A
C3431      C3438   1.401       .  A
C3434      C3435   1.399       .  A
C3434      F3439   1.358       .  S
C3435      C3436   1.412   1_565  A
C3435      F3441   1.357       .  S
C3436      C3437   1.414       .  A
C3437      C3438   1.397       .  A
C3437      F3440   1.358       .  S
C3438      F3442   1.358       .  S
C3445      C3446   1.406       .  A
C3445      C3450   1.401       .  A
C3445      F3463   1.358       .  S
C3446      C3451   1.482   1_556  S
C3446      C3447   1.402   1_545  A
C3447      C3448   1.396       .  A
C3447      F3452   1.358       .  S
C3448      C3449   1.416       .  A
C3448      F3464   1.358       .  S
C3449      C3450   1.412   1_565  A
C3450      F3453   1.358       .  S
C3451      C3454   1.407       .  A
C3451      C3458   1.406   1_545  A
C3454      C3455   1.400       .  A
C3454      F3459   1.358       .  S
C3455      C3456   1.404       .  A
C3455      F3461   1.358       .  S
C3456      C3457   1.406   1_545  A
C3457      C3458   1.398       .  A
C3457      F3460   1.358       .  S
C3458      F3462   1.358       .  S
C3465      C3466   1.405   1_565  A
C3465      C3470   1.400       .  A
C3465      F3483   1.358       .  S
C3466      C3471   1.480   1_655  S
C3466      C3467   1.405       .  A
C3467      C3468   1.395       .  A
C3467      F3472   1.358       .  S
C3468      C3469   1.408   1_545  A
C3468      F3484   1.358       .  S
C3469      C3470   1.409       .  A
C3470      F3473   1.358       .  S
C3471      C3474   1.407   1_545  A
C3471      C3478   1.402       .  A
C3474      C3475   1.402       .  A
C3474      F3479   1.358   1_455  S
C3475      C3476   1.407   1_565  A
C3475      F3481   1.357       .  S
C3476      C3477   1.411       .  A
C3477      C3478   1.393       .  A
C3477      F3480   1.359       .  S
C3478      F3482   1.359       .  S
C3485      C3486   1.406       .  A
C3485      C3490   1.394       .  A
C3485      F3503   1.358       .  S
C3486      C3491   1.478       .  S
C3486      C3487   1.405   1_545  A
C3487      C3488   1.397       .  A
C3487      F3492   1.357       .  S
C3488      C3489   1.406   1_565  A
C3488      F3504   1.358       .  S
C3489      C3490   1.405       .  A
C3490      F3493   1.359       .  S
C3491      C3494   1.404   1_545  A
C3491      C3498   1.404       .  A
C3494      C3495   1.400       .  A
C3494      F3499   1.358       .  S
C3495      C3496   1.411   1_565  A
C3495      F3501   1.358       .  S
C3496      C3497   1.411       .  A
C3497      C3498   1.393       .  A
C3497      F3500   1.358       .  S
C3498      F3502   1.359       .  S
C3505      C3506   1.402   1_565  A
C3505      C3510   1.397       .  A
C3505      F3523   1.358   1_554  S
C3506      C3511   1.484   1_654  S
C3506      C3507   1.405       .  A
C3507      C3508   1.403       .  A
C3507      F3512   1.358       .  S
C3508      C3509   1.413   1_545  A
C3508      F3524   1.358       .  S
C3509      C3510   1.415       .  A
C3510      F3513   1.358       .  S
C3511      C3514   1.408       .  A
C3511      C3518   1.403   1_546  A
C3514      C3515   1.406       .  A
C3514      F3519   1.358   1_455  S
C3515      C3516   1.408       .  A
C3515      F3521   1.358       .  S
C3516      C3517   1.409   1_545  A
C3517      C3518   1.396   1_556  A
C3517      F3520   1.358       .  S
C3518      F3522   1.358       .  S
C3525      C3526   1.401   1_565  A
C3525      C3530   1.399       .  A
C3525      F3543   1.358       .  S
C3526      C3531   1.481       .  S
C3526      C3527   1.405       .  A
C3527      C3528   1.402       .  A
C3527      F3532   1.358       .  S
C3528      C3529   1.411   1_545  A
C3528      F3544   1.358       .  S
C3529      C3530   1.415       .  A
C3530      F3533   1.358       .  S
C3531      C3534   1.399       .  A
C3531      C3538   1.408   1_545  A
C3534      C3535   1.395       .  A
C3534      F3539   1.358       .  S
C3535      C3536   1.414       .  A
C3535      F3541   1.359       .  S
C3536      C3537   1.407   1_545  A
C3537      C3538   1.406       .  A
C3537      F3540   1.357       .  S
C3538      F3542   1.357       .  S
C3545      C3546   1.400       .  A
C3545      C3550   1.394       .  A
C3545      F3563   1.358       .  S
C3546      C3551   1.477       .  S
C3546      C3547   1.406   1_545  A
C3547      C3548   1.401       .  A
C3547      F3552   1.358       .  S
C3548      C3549   1.406   1_565  A
C3548      F3564   1.357       .  S
C3549      C3550   1.413       .  A
C3550      F3553   1.359       .  S
C3551      C3554   1.403   1_545  A
C3551      C3558   1.403       .  A
C3554      C3555   1.398       .  A
C3554      F3559   1.358       .  S
C3555      C3556   1.410   1_565  A
C3555      F3561   1.358       .  S
C3556      C3557   1.411       .  A
C3557      C3558   1.397       .  A
C3557      F3560   1.358       .  S
C3558      F3562   1.358       .  S
C3565      C3566   1.405   1_565  A
C3565      C3570   1.405       .  A
C3565      F3583   1.358       .  S
C3566      C3571   1.479       .  S
C3566      C3567   1.400       .  A
C3567      C3568   1.393       .  A
C3567      F3572   1.359       .  S
C3568      C3569   1.414       .  A
C3568      F3584   1.358       .  S
C3569      C3570   1.413   1_545  A
C3570      F3573   1.357       .  S
C3571      C3574   1.404   1_545  A
C3571      C3578   1.401       .  A
C3574      C3575   1.404       .  A
C3574      F3579   1.357       .  S
C3575      C3576   1.412   1_565  A
C3575      F3581   1.358       .  S
C3576      C3577   1.413       .  A
C3577      C3578   1.394       .  A
C3577      F3580   1.358       .  S
C3578      F3582   1.358       .  S
C3585      C3586   1.401       .  A
C3585      C3590   1.397       .  A
C3585      F3603   1.358       .  S
C3586      C3591   1.479       .  S
C3586      C3587   1.405       .  A
C3587      C3588   1.400       .  A
C3587      F3592   1.358       .  S
C3588      C3589   1.410       .  A
C3588      F3604   1.357       .  S
C3589      C3590   1.413       .  A
C3590      F3593   1.358       .  S
C3591      C3594   1.400       .  A
C3591      C3598   1.405       .  A
C3594      C3595   1.395       .  A
C3594      F3599   1.358       .  S
C3595      C3596   1.415       .  A
C3595      F3601   1.358       .  S
C3596      C3597   1.411       .  A
C3597      C3598   1.401       .  A
C3597      F3600   1.357       .  S
C3598      F3602   1.358       .  S
C3605      C3606   1.400       .  A
C3605      C3610   1.396       .  A
C3605      F3623   1.358       .  S
C3606      C3611   1.479       .  S
C3606      C3607   1.405       .  A
C3607      C3608   1.401       .  A
C3607      F3612   1.358       .  S
C3608      C3609   1.410       .  A
C3608      F3624   1.357       .  S
C3609      C3610   1.417       .  A
C3610      F3613   1.358       .  S
C3611      C3614   1.404       .  A
C3611      C3618   1.404       .  A
C3614      C3615   1.398       .  A
C3614      F3619   1.358       .  S
C3615      C3616   1.408       .  A
C3615      F3621   1.358       .  S
C3616      C3617   1.407       .  A
C3617      C3618   1.399       .  A
C3617      F3620   1.358       .  S
C3618      F3622   1.358       .  S
C3625      C3626   1.406       .  A
C3625      C3630   1.403       .  A
C3625      F3643   1.358       .  S
C3626      C3631   1.483       .  S
C3626      C3627   1.401       .  A
C3627      C3628   1.394       .  A
C3627      F3632   1.359       .  S
C3628      C3629   1.417       .  A
C3628      F3644   1.358       .  S
C3629      C3630   1.411       .  A
C3630      F3633   1.357       .  S
C3631      C3634   1.407       .  A
C3631      C3638   1.406       .  A
C3634      C3635   1.400       .  A
C3634      F3639   1.358       .  S
C3635      C3636   1.406       .  A
C3635      F3641   1.358       .  S
C3636      C3637   1.408       .  A
C3637      C3638   1.397       .  A
C3637      F3640   1.358       .  S
C3638      F3642   1.358       .  S
C3645      C3646   1.403       .  A
C3645      C3650   1.398       .  A
C3645      F3663   1.358       .  S
C3646      C3651   1.472       .  S
C3646      C3647   1.402       .  A
C3647      C3648   1.392       .  A
C3647      F3652   1.358       .  S
C3648      C3649   1.409       .  A
C3648      F3664   1.358       .  S
C3649      C3650   1.411       .  A
C3650      F3653   1.358       .  S
C3651      C3654   1.405       .  A
C3651      C3658   1.403       .  A
C3654      C3655   1.399       .  A
C3654      F3659   1.358       .  S
C3655      C3656   1.406       .  A
C3655      F3661   1.358       .  S
C3656      C3657   1.406       .  A
C3657      C3658   1.392       .  A
C3657      F3660   1.358       .  S
C3658      F3662   1.358       .  S
C3665      C3666   1.403       .  A
C3665      C3670   1.398       .  A
C3665      F3683   1.358       .  S
C3666      C3671   1.477   1_655  S
C3666      C3667   1.404       .  A
C3667      C3668   1.398       .  A
C3667      F3672   1.358   1_655  S
C3668      C3669   1.406       .  A
C3668      F3684   1.358       .  S
C3669      C3670   1.411       .  A
C3670      F3673   1.358       .  S
C3671      C3674   1.399       .  A
C3671      C3678   1.404       .  A
C3674      C3675   1.396       .  A
C3674      F3679   1.358       .  S
C3675      C3676   1.416       .  A
C3675      F3681   1.358       .  S
C3676      C3677   1.411       .  A
C3677      C3678   1.400       .  A
C3677      F3680   1.358       .  S
C3678      F3682   1.358       .  S
C3685      C3686   1.402       .  A
C3685      C3690   1.400       .  A
C3685      F3703   1.358       .  S
C3686      C3691   1.476       .  S
C3686      C3687   1.400       .  A
C3687      C3688   1.398       .  A
C3687      F3692   1.358       .  S
C3688      C3689   1.414       .  A
C3688      F3704   1.358       .  S
C3689      C3690   1.413       .  A
C3690      F3693   1.358       .  S
C3691      C3694   1.402       .  A
C3691      C3698   1.400       .  A
C3694      C3695   1.400       .  A
C3694      F3699   1.358       .  S
C3695      C3696   1.413       .  A
C3695      F3701   1.358       .  S
C3696      C3697   1.415       .  A
C3697      C3698   1.399       .  A
C3697      F3700   1.358       .  S
C3698      F3702   1.358       .  S
C3705      C3706   1.404       .  A
C3705      C3710   1.395       .  A
C3705      F3723   1.358       .  S
C3706      C3711   1.475       .  S
C3706      C3707   1.404       .  A
C3707      C3708   1.400       .  A
C3707      F3712   1.357       .  S
C3708      C3709   1.407       .  A
C3708      F3724   1.358       .  S
C3709      C3710   1.408       .  A
C3710      F3713   1.359       .  S
C3711      C3714   1.404       .  A
C3711      C3718   1.403       .  A
C3714      C3715   1.401       .  A
C3714      F3719   1.358       .  S
C3715      C3716   1.409       .  A
C3715      F3721   1.358       .  S
C3716      C3717   1.407       .  A
C3717      C3718   1.394       .  A
C3717      F3720   1.358       .  S
C3718      F3722   1.358       .  S
C3725      C3726   1.407       .  A
C3725      C3730   1.402       .  A
C3725      F3743   1.358       .  S
C3726      C3731   1.489   1_655  S
C3726      C3727   1.404       .  A
C3727      C3728   1.397       .  A
C3727      F3732   1.358       .  S
C3728      C3729   1.415       .  A
C3728      F3744   1.358       .  S
C3729      C3730   1.413       .  A
C3730      F3733   1.358       .  S
C3731      C3734   1.406       .  A
C3731      C3738   1.408       .  A
C3734      C3735   1.396       .  A
C3734      F3739   1.358       .  S
C3735      C3736   1.412       .  A
C3735      F3741   1.359       .  S
C3736      C3737   1.408       .  A
C3737      C3738   1.402       .  A
C3737      F3740   1.358       .  S
C3738      F3742   1.358   1_455  S
C3745      C3746   1.404       .  A
C3745      C3750   1.400       .  A
C3745      F3763   1.358       .  S
C3746      C3751   1.478       .  S
C3746      C3747   1.402       .  A
C3747      C3748   1.396       .  A
C3747      F3752   1.358       .  S
C3748      C3749   1.411       .  A
C3748      F3764   1.358       .  S
C3749      C3750   1.410       .  A
C3750      F3753   1.358       .  S
C3751      C3754   1.401       .  A
C3751      C3758   1.404       .  A
C3754      C3755   1.395       .  A
C3754      F3759   1.358       .  S
C3755      C3756   1.414       .  A
C3755      F3761   1.358       .  S
C3756      C3757   1.412       .  A
C3757      C3758   1.401       .  A
C3757      F3760   1.358       .  S
C3758      F3762   1.358       .  S
C3765      C3766   1.401       .  A
C3765      C3770   1.394       .  A
C3765      F3783   1.359       .  S
C3766      C3771   1.483   1_554  S
C3766      C3767   1.408       .  A
C3767      C3768   1.404       .  A
C3767      F3772   1.358       .  S
C3768      C3769   1.410       .  A
C3768      F3784   1.357       .  S
C3769      C3770   1.415       .  A
C3770      F3773   1.358       .  S
C3771      C3774   1.405       .  A
C3771      C3778   1.407       .  A
C3774      C3775   1.399       .  A
C3774      F3779   1.358       .  S
C3775      C3776   1.407       .  A
C3775      F3781   1.358       .  S
C3776      C3777   1.407       .  A
C3777      C3778   1.398       .  A
C3777      F3780   1.358       .  S
C3778      F3782   1.358       .  S
C3785      C3786   1.401       .  A
C3785      C3790   1.396       .  A
C3785      F3803   1.358       .  S
C3786      C3791   1.474       .  S
C3786      C3787   1.403       .  A
C3787      C3788   1.400       .  A
C3787      F3792   1.358       .  S
C3788      C3789   1.409       .  A
C3788      F3804   1.358       .  S
C3789      C3790   1.412       .  A
C3790      F3793   1.358       .  S
C3791      C3794   1.400       .  A
C3791      C3798   1.403       .  A
C3794      C3795   1.397       .  A
C3794      F3799   1.358       .  S
C3795      C3796   1.414       .  A
C3795      F3801   1.358       .  S
C3796      C3797   1.411       .  A
C3797      C3798   1.399       .  A
C3797      F3800   1.358       .  S
C3798      F3802   1.358       .  S
C3805      C3806   1.409       .  A
C3805      C3810   1.407       .  A
C3805      F3823   1.358       .  S
C3806      C3811   1.487       .  S
C3806      C3807   1.403       .  A
C3807      C3808   1.394       .  A
C3807      F3812   1.358       .  S
C3808      C3809   1.409       .  A
C3808      F3824   1.358       .  S
C3809      C3810   1.410       .  A
C3810      F3813   1.358       .  S
C3811      C3814   1.404       .  A
C3811      C3818   1.405       .  A
C3814      C3815   1.405       .  A
C3814      F3819   1.358       .  S
C3815      C3816   1.416       .  A
C3815      F3821   1.358       .  S
C3816      C3817   1.413       .  A
C3817      C3818   1.397       .  A
C3817      F3820   1.358       .  S
C3818      F3822   1.359       .  S
C3825      C3826   1.405       .  A
C3825      C3830   1.404       .  A
C3825      F3843   1.357       .  S
C3826      C3831   1.480       .  S
C3826      C3827   1.401       .  A
C3827      C3828   1.398       .  A
C3827      F3832   1.358       .  S
C3828      C3829   1.412       .  A
C3828      F3844   1.358       .  S
C3829      C3830   1.408       .  A
C3830      F3833   1.357       .  S
C3831      C3834   1.399       .  A
C3831      C3838   1.408       .  A
C3834      C3835   1.397       .  A
C3834      F3839   1.358       .  S
C3835      C3836   1.412       .  A
C3835      F3841   1.358       .  S
C3836      C3837   1.406       .  A
C3837      C3838   1.406       .  A
C3837      F3840   1.357       .  S
C3838      F3842   1.357       .  S
C3845      C3846   1.407       .  A
C3845      C3850   1.405       .  A
C3845      F3863   1.358       .  S
C3846      C3851   1.483       .  S
C3846      C3847   1.399       .  A
C3847      C3848   1.395       .  A
C3847      F3852   1.358       .  S
C3848      C3849   1.416       .  A
C3848      F3864   1.358       .  S
C3849      C3850   1.411       .  A
C3850      F3853   1.357       .  S
C3851      C3854   1.400       .  A
C3851      C3858   1.408       .  A
C3854      C3855   1.396       .  A
C3854      F3859   1.358       .  S
C3855      C3856   1.414       .  A
C3855      F3861   1.358       .  S
C3856      C3857   1.409       .  A
C3857      C3858   1.404       .  A
C3857      F3860   1.358       .  S
C3858      F3862   1.358       .  S
C3865      C3866   1.407       .  A
C3865      C3870   1.400       .  A
C3865      F3883   1.358       .  S
C3866      C3871   1.483       .  S
C3866      C3867   1.403       .  A
C3867      C3868   1.398       .  A
C3867      F3872   1.358       .  S
C3868      C3869   1.411       .  A
C3868      F3884   1.358       .  S
C3869      C3870   1.409       .  A
C3870      F3873   1.358       .  S
C3871      C3874   1.410       .  A
C3871      C3878   1.401       .  A
C3874      C3875   1.405       .  A
C3874      F3879   1.358       .  S
C3875      C3876   1.407       .  A
C3875      F3881   1.358       .  S
C3876      C3877   1.411       .  A
C3877      C3878   1.393       .  A
C3877      F3880   1.358       .  S
C3878      F3882   1.358       .  S
C3885      C3886   1.407       .  A
C3885      C3890   1.403       .  A
C3885      F3903   1.358       .  S
C3886      C3891   1.475       .  S
C3886      C3887   1.399       .  A
C3887      C3888   1.393       .  A
C3887      F3892   1.358       .  S
C3888      C3889   1.410       .  A
C3888      F3904   1.359       .  S
C3889      C3890   1.407       .  A
C3890      F3893   1.358       .  S
C3891      C3894   1.405       .  A
C3891      C3898   1.400       .  A
C3894      C3895   1.398       .  A
C3894      F3899   1.358       .  S
C3895      C3896   1.409       .  A
C3895      F3901   1.358       .  S
C3896      C3897   1.413       .  A
C3897      C3898   1.397       .  A
C3897      F3900   1.358       .  S
C3898      F3902   1.358       .  S
C3905      C3906   1.407       .  A
C3905      C3910   1.397       .  A
C3905      F3923   1.358       .  S
C3906      C3911   1.489   1_455  S
C3906      C3907   1.409       .  A
C3907      C3908   1.404       .  A
C3907      F3912   1.358       .  S
C3908      C3909   1.407       .  A
C3908      F3924   1.358       .  S
C3909      C3910   1.406       .  A
C3910      F3913   1.358       .  S
C3911      C3914   1.409       .  A
C3911      C3918   1.404       .  A
C3914      C3915   1.405       .  A
C3914      F3919   1.358       .  S
C3915      C3916   1.410       .  A
C3915      F3921   1.358       .  S
C3916      C3917   1.412       .  A
C3917      C3918   1.394       .  A
C3917      F3920   1.358       .  S
C3918      F3922   1.358       .  S
C3925      C3926   1.408       .  A
C3925      C3930   1.405       .  A
C3925      F3943   1.357       .  S
C3926      C3931   1.479       .  S
C3926      C3927   1.399       .  A
C3927      C3928   1.394       .  A
C3927      F3932   1.358       .  S
C3928      C3929   1.411       .  A
C3928      F3944   1.359       .  S
C3929      C3930   1.406       .  A
C3930      F3933   1.358       .  S
C3931      C3934   1.400       .  A
C3931      C3938   1.405       .  A
C3934      C3935   1.396       .  A
C3934      F3939   1.358       .  S
C3935      C3936   1.414       .  A
C3935      F3941   1.358       .  S
C3936      C3937   1.411       .  A
C3937      C3938   1.405       .  A
C3937      F3940   1.357       .  S
C3938      F3942   1.358       .  S
C3945      C3946   1.404       .  A
C3945      C3950   1.393       .  A
C3945      F3963   1.358       .  S
C3946      C3951   1.481       .  S
C3946      C3947   1.407       .  A
C3947      C3948   1.404       .  A
C3947      F3952   1.358       .  S
C3948      C3949   1.407       .  A
C3948      F3964   1.358       .  S
C3949      C3950   1.407       .  A
C3950      F3953   1.358       .  S
C3951      C3954   1.403       .  A
C3951      C3958   1.404       .  A
C3954      C3955   1.394       .  A
C3954      F3959   1.358       .  S
C3955      C3956   1.413       .  A
C3955      F3961   1.358       .  S
C3956      C3957   1.413       .  A
C3957      C3958   1.403       .  A
C3957      F3960   1.358       .  S
C3958      F3962   1.358       .  S
C3965      C3966   1.406       .  A
C3965      C3970   1.400       .  A
C3965      F3983   1.358   1_655  S
C3966      C3971   1.483   1_655  S
C3966      C3967   1.405       .  A
C3967      C3968   1.398       .  A
C3967      F3972   1.358       .  S
C3968      C3969   1.409       .  A
C3968      F3984   1.358       .  S
C3969      C3970   1.409       .  A
C3970      F3973   1.358       .  S
C3971      C3974   1.406       .  A
C3971      C3978   1.403       .  A
C3974      C3975   1.402       .  A
C3974      F3979   1.358       .  S
C3975      C3976   1.411       .  A
C3975      F3981   1.358       .  S
C3976      C3977   1.412       .  A
C3977      C3978   1.395       .  A
C3977      F3980   1.358       .  S
C3978      F3982   1.358       .  S
C3985      C3986   1.404       .  A
C3985      C3990   1.404       .  A
C3985      F4003   1.357       .  S
C3986      C3991   1.471       .  S
C3986      C3987   1.397       .  A
C3987      C3988   1.392       .  A
C3987      F3992   1.358       .  S
C3988      C3989   1.415       .  A
C3988      F4004   1.358   1_554  S
C3989      C3990   1.411       .  A
C3990      F3993   1.358       .  S
C3991      C3994   1.398       .  A
C3991      C3998   1.403       .  A
C3994      C3995   1.392       .  A
C3994      F3999   1.359       .  S
C3995      C3996   1.415       .  A
C3995      F4001   1.358       .  S
C3996      C3997   1.411       .  A
C3997      C3998   1.403       .  A
C3997      F4000   1.357       .  S
C3998      F4002   1.357       .  S
C4005      C4006   1.400       .  A
C4005      C4010   1.392       .  A
C4005      F4023   1.358       .  S
C4006      C4011   1.476       .  S
C4006      C4007   1.407       .  A
C4007      C4008   1.402       .  A
C4007      F4012   1.358       .  S
C4008      C4009   1.408       .  A
C4008      F4024   1.358       .  S
C4009      C4010   1.412       .  A
C4010      F4013   1.358       .  S
C4011      C4014   1.406       .  A
C4011      C4018   1.401       .  A
C4014      C4015   1.398       .  A
C4014      F4019   1.358       .  S
C4015      C4016   1.408       .  A
C4015      F4021   1.358       .  S
C4016      C4017   1.413       .  A
C4017      C4018   1.395       .  A
C4017      F4020   1.358       .  S
C4018      F4022   1.358       .  S
C4025      C4026   1.408       .  A
C4025      C4030   1.397       .  A
C4025      F4043   1.358       .  S
C4026      C4031   1.487       .  S
C4026      C4027   1.406       .  A
C4027      C4028   1.399       .  A
C4027      F4032   1.358       .  S
C4028      C4029   1.410       .  A
C4028      F4044   1.358       .  S
C4029      C4030   1.408       .  A
C4030      F4033   1.358       .  S
C4031      C4034   1.410       .  A
C4031      C4038   1.404       .  A
C4034      C4035   1.403       .  A
C4034      F4039   1.357       .  S
C4035      C4036   1.406       .  A
C4035      F4041   1.358       .  S
C4036      C4037   1.412       .  A
C4037      C4038   1.394       .  A
C4037      F4040   1.359       .  S
C4038      F4042   1.358       .  S
C4045      C4046   1.405       .  A
C4045      C4050   1.404       .  A
C4045      F4063   1.358       .  S
C4046      C4051   1.482       .  S
C4046      C4047   1.404       .  A
C4047      C4048   1.395       .  A
C4047      F4052   1.358       .  S
C4048      C4049   1.408       .  A
C4048      F4064   1.358       .  S
C4049      C4050   1.410       .  A
C4050      F4053   1.358       .  S
C4051      C4054   1.404       .  A
C4051      C4058   1.406       .  A
C4054      C4055   1.395       .  A
C4054      F4059   1.358       .  S
C4055      C4056   1.407       .  A
C4055      F4061   1.358       .  S
C4056      C4057   1.409       .  A
C4057      C4058   1.403       .  A
C4057      F4060   1.358       .  S
C4058      F4062   1.358       .  S
C4065      C4066   1.404       .  A
C4065      C4070   1.402       .  A
C4065      F4083   1.358       .  S
C4066      C4071   1.474       .  S
C4066      C4067   1.399       .  A
C4067      C4068   1.394       .  A
C4067      F4072   1.358       .  S
C4068      C4069   1.413       .  A
C4068      F4084   1.358       .  S
C4069      C4070   1.411       .  A
C4070      F4073   1.358       .  S
C4071      C4074   1.398       .  A
C4071      C4078   1.406       .  A
C4074      C4075   1.393       .  A
C4074      F4079   1.358       .  S
C4075      C4076   1.413       .  A
C4075      F4081   1.358       .  S
C4076      C4077   1.409       .  A
C4077      C4078   1.404       .  A
C4077      F4080   1.358       .  S
C4078      F4082   1.358       .  S
C4085      C4086   1.405       .  A
C4085      C4090   1.402       .  A
C4085      F4103   1.358       .  S
C4086      C4091   1.483       .  S
C4086      C4087   1.403       .  A
C4087      C4088   1.395       .  A
C4087      F4092   1.358       .  S
C4088      C4089   1.413       .  A
C4088      F4104   1.358       .  S
C4089      C4090   1.413       .  A
C4090      F4093   1.358       .  S
C4091      C4094   1.406       .  A
C4091      C4098   1.406       .  A
C4094      C4095   1.401       .  A
C4094      F4099   1.358       .  S
C4095      C4096   1.408       .  A
C4095      F4101   1.358       .  S
C4096      C4097   1.406       .  A
C4097      C4098   1.396       .  A
C4097      F4100   1.358       .  S
C4098      F4102   1.358       .  S
C4105      C4106   1.403       .  A
C4105      C4110   1.401       .  A
C4105      F4123   1.358       .  S
C4106      C4111   1.471       .  S
C4106      C4107   1.398       .  A
C4107      C4108   1.391       .  A
C4107      F4112   1.359       .  S
C4108      C4109   1.415       .  A
C4108      F4124   1.358       .  S
C4109      C4110   1.410       .  A
C4110      F4113   1.357       .  S
C4111      C4114   1.399       .  A
C4111      C4118   1.403       .  A
C4114      C4115   1.392       .  A
C4114      F4119   1.358       .  S
C4115      C4116   1.412       .  A
C4115      F4121   1.358       .  S
C4116      C4117   1.411       .  A
C4117      C4118   1.401       .  A
C4117      F4120   1.358       .  S
C4118      F4122   1.358       .  S
C4125      C4126   1.407       .  A
C4125      C4130   1.400       .  A
C4125      F4143   1.358       .  S
C4126      C4131   1.488       .  S
C4126      C4127   1.406       .  A
C4127      C4128   1.402       .  A
C4127      F4132   1.358       .  S
C4128      C4129   1.411       .  A
C4128      F4144   1.358       .  S
C4129      C4130   1.409       .  A
C4130      F4133   1.358       .  S
C4131      C4134   1.403       .  A
C4131      C4138   1.407       .  A
C4134      C4135   1.397       .  A
C4134      F4139   1.358       .  S
C4135      C4136   1.415       .  A
C4135      F4141   1.358       .  S
C4136      C4137   1.413       .  A
C4137      C4138   1.404       .  A
C4137      F4140   1.358       .  S
C4138      F4142   1.358       .  S
C4145      C4146   1.405       .  A
C4145      C4150   1.396       .  A
C4145      F4163   1.358       .  S
C4146      C4151   1.481       .  S
C4146      C4147   1.404       .  A
C4147      C4148   1.401       .  A
C4147      F4152   1.358       .  S
C4148      C4149   1.412       .  A
C4148      F4164   1.358       .  S
C4149      C4150   1.407       .  A
C4150      F4153   1.358       .  S
C4151      C4154   1.400       .  A
C4151      C4158   1.405       .  A
C4154      C4155   1.395       .  A
C4154      F4159   1.358       .  S
C4155      C4156   1.416       .  A
C4155      F4161   1.358       .  S
C4156      C4157   1.413       .  A
C4157      C4158   1.403       .  A
C4157      F4160   1.358       .  S
C4158      F4162   1.358       .  S
C4165      C4166   1.402       .  A
C4165      C4170   1.401       .  A
C4165      F4183   1.358       .  S
C4166      C4171   1.477       .  S
C4166      C4167   1.401       .  A
C4167      C4168   1.399       .  A
C4167      F4172   1.358       .  S
C4168      C4169   1.412       .  A
C4168      F4184   1.358       .  S
C4169      C4170   1.412       .  A
C4170      F4173   1.358       .  S
C4171      C4174   1.402       .  A
C4171      C4178   1.402       .  A
C4174      C4175   1.401       .  A
C4174      F4179   1.358       .  S
C4175      C4176   1.412       .  A
C4175      F4181   1.358       .  S
C4176      C4177   1.411       .  A
C4177      C4178   1.399       .  A
C4177      F4180   1.358       .  S
C4178      F4182   1.358       .  S
C4185      C4186   1.402       .  A
C4185      C4190   1.395       .  A
C4185      F4203   1.358       .  S
C4186      C4191   1.487   1_655  S
C4186      C4187   1.410       .  A
C4187      C4188   1.406       .  A
C4187      F4192   1.358   1_655  S
C4188      C4189   1.407       .  A
C4188      F4204   1.358       .  S
C4189      C4190   1.412       .  A
C4190      F4193   1.358       .  S
C4191      C4194   1.402       .  A
C4191      C4198   1.407       .  A
C4194      C4195   1.399       .  A
C4194      F4199   1.358       .  S
C4195      C4196   1.416       .  A
C4195      F4201   1.358       .  S
C4196      C4197   1.413       .  A
C4197      C4198   1.403       .  A
C4197      F4200   1.358       .  S
C4198      F4202   1.358       .  S
C4205      C4206   1.399       .  A
C4205      C4210   1.393       .  A
C4205      F4223   1.358       .  S
C4206      C4211   1.473       .  S
C4206      C4207   1.408       .  A
C4207      C4208   1.401       .  A
C4207      F4212   1.358       .  S
C4208      C4209   1.403       .  A
C4208      F4224   1.357       .  S
C4209      C4210   1.410       .  A
C4210      F4213   1.359       .  S
C4211      C4214   1.403       .  A
C4211      C4218   1.401       .  A
C4214      C4215   1.400       .  A
C4214      F4219   1.358       .  S
C4215      C4216   1.410       .  A
C4215      F4221   1.357       .  S
C4216      C4217   1.412       .  A
C4217      C4218   1.394       .  A
C4217      F4220   1.358       .  S
C4218      F4222   1.358       .  S
C4225      C4226   1.403       .  A
C4225      C4230   1.398       .  A
C4225      F4243   1.358       .  S
C4226      C4231   1.471       .  S
C4226      C4227   1.401       .  A
C4227      C4228   1.396       .  A
C4227      F4232   1.358       .  S
C4228      C4229   1.410       .  A
C4228      F4244   1.358       .  S
C4229      C4230   1.407       .  A
C4230      F4233   1.358       .  S
C4231      C4234   1.402       .  A
C4231      C4238   1.399       .  A
C4234      C4235   1.398       .  A
C4234      F4239   1.358       .  S
C4235      C4236   1.411       .  A
C4235      F4241   1.358       .  S
C4236      C4237   1.414       .  A
C4237      C4238   1.396       .  A
C4237      F4240   1.358   1_556  S
C4238      F4242   1.358   1_556  S
C4245      C4246   1.406       .  A
C4245      C4250   1.398       .  A
C4245      F4263   1.358       .  S
C4246      C4251   1.488       .  S
C4246      C4247   1.406       .  A
C4247      C4248   1.404       .  A
C4247      F4252   1.357       .  S
C4248      C4249   1.410       .  A
C4248      F4264   1.358       .  S
C4249      C4250   1.410       .  A
C4250      F4253   1.358       .  S
C4251      C4254   1.409       .  A
C4251      C4258   1.406       .  A
C4254      C4255   1.405       .  A
C4254      F4259   1.358       .  S
C4255      C4256   1.407       .  A
C4255      F4261   1.358       .  S
C4256      C4257   1.406       .  A
C4257      C4258   1.397       .  A
C4257      F4260   1.358   1_556  S
C4258      F4262   1.358       .  S
C4265      C4266   1.409       .  A
C4265      C4270   1.405       .  A
C4265      F4283   1.358       .  S
C4266      C4271   1.497   1_655  S
C4266      C4267   1.407       .  A
C4267      C4268   1.400       .  A
C4267      F4272   1.358       .  S
C4268      C4269   1.415       .  A
C4268      F4284   1.358       .  S
C4269      C4270   1.413       .  A
C4270      F4273   1.357       .  S
C4271      C4274   1.408       .  A
C4271      C4278   1.412       .  A
C4274      C4275   1.399       .  A
C4274      F4279   1.358       .  S
C4275      C4276   1.408       .  A
C4275      F4281   1.359       .  S
C4276      C4277   1.405       .  A
C4277      C4278   1.405       .  A
C4277      F4280   1.358       .  S
C4278      F4282   1.357   1_455  S
C4285      C4286   1.404       .  A
C4285      C4290   1.396       .  A
C4285      F4303   1.358       .  S
C4286      C4291   1.494       .  S
C4286      C4287   1.411       .  A
C4287      C4288   1.406       .  A
C4287      F4292   1.358       .  S
C4288      C4289   1.409       .  A
C4288      F4304   1.357       .  S
C4289      C4290   1.415       .  A
C4290      F4293   1.358       .  S
C4291      C4294   1.413       .  A
C4291      C4298   1.406       .  A
C4294      C4295   1.406       .  A
C4294      F4299   1.358       .  S
C4295      C4296   1.407       .  A
C4295      F4301   1.358       .  S
C4296      C4297   1.406       .  A
C4297      C4298   1.395       .  A
C4297      F4300   1.358       .  S
C4298      F4302   1.357       .  S
C4305      C4306   1.405       .  A
C4305      C4310   1.398       .  A
C4305      F4323   1.358       .  S
C4306      C4311   1.481       .  S
C4306      C4307   1.403       .  A
C4307      C4308   1.401       .  A
C4307      F4312   1.358       .  S
C4308      C4309   1.413       .  A
C4308      F4324   1.358       .  S
C4309      C4310   1.410       .  A
C4310      F4313   1.358       .  S
C4311      C4314   1.406       .  A
C4311      C4318   1.401       .  A
C4314      C4315   1.403       .  A
C4314      F4319   1.358       .  S
C4315      C4316   1.410       .  A
C4315      F4321   1.358       .  S
C4316      C4317   1.412       .  A
C4317      C4318   1.395       .  A
C4317      F4320   1.358       .  S
C4318      F4322   1.358       .  S
C4325      C4326   1.402       .  A
C4325      C4330   1.397       .  A
C4325      F4343   1.358       .  S
C4326      C4331   1.475       .  S
C4326      C4327   1.404       .  A
C4327      C4328   1.398       .  A
C4327      F4332   1.358       .  S
C4328      C4329   1.407       .  A
C4328      F4344   1.358       .  S
C4329      C4330   1.412       .  A
C4330      F4333   1.358       .  S
C4331      C4334   1.399       .  A
C4331      C4338   1.405       .  A
C4334      C4335   1.393       .  A
C4334      F4339   1.358       .  S
C4335      C4336   1.415       .  A
C4335      F4341   1.358       .  S
C4336      C4337   1.410       .  A
C4337      C4338   1.401       .  A
C4337      F4340   1.358       .  S
C4338      F4342   1.358       .  S
C4345      C4346   1.404       .  A
C4345      C4350   1.399       .  A
C4345      F4363   1.358       .  S
C4346      C4351   1.486       .  S
C4346      C4347   1.407       .  A
C4347      C4348   1.401       .  A
C4347      F4352   1.358       .  S
C4348      C4349   1.410       .  A
C4348      F4364   1.358       .  S
C4349      C4350   1.412       .  A
C4350      F4353   1.358       .  S
C4351      C4354   1.402       .  A
C4351      C4358   1.408       .  A
C4354      C4355   1.396       .  A
C4354      F4359   1.358       .  S
C4355      C4356   1.415       .  A
C4355      F4361   1.358       .  S
C4356      C4357   1.410       .  A
C4357      C4358   1.404       .  A
C4357      F4360   1.357       .  S
C4358      F4362   1.358       .  S
C4365      C4366   1.408       .  A
C4365      C4370   1.401       .  A
C4365      F4383   1.358       .  S
C4366      C4371   1.498       .  S
C4366      C4367   1.409       .  A
C4367      C4368   1.405       .  A
C4367      F4372   1.357       .  S
C4368      C4369   1.411       .  A
C4368      F4384   1.358       .  S
C4369      C4370   1.413       .  A
C4370      F4373   1.358       .  S
C4371      C4374   1.409       .  A
C4371      C4378   1.411       .  A
C4374      C4375   1.402       .  A
C4374      F4379   1.358       .  S
C4375      C4376   1.409       .  A
C4375      F4381   1.358       .  S
C4376      C4377   1.405       .  A
C4377      C4378   1.405       .  A
C4377      F4380   1.357       .  S
C4378      F4382   1.357       .  S
C4385      C4386   1.406       .  A
C4385      C4390   1.403       .  A
C4385      F4403   1.358       .  S
C4386      C4391   1.472       .  S
C4386      C4387   1.399       .  A
C4387      C4388   1.391       .  A
C4387      F4392   1.358       .  S
C4388      C4389   1.409       .  A
C4388      F4404   1.358       .  S
C4389      C4390   1.407       .  A
C4390      F4393   1.358       .  S
C4391      C4394   1.402       .  A
C4391      C4398   1.401       .  A
C4394      C4395   1.399       .  A
C4394      F4399   1.358       .  S
C4395      C4396   1.411       .  A
C4395      F4401   1.358       .  S
C4396      C4397   1.411       .  A
C4397      C4398   1.394       .  A
C4397      F4400   1.358       .  S
C4398      F4402   1.358       .  S
C4405      C4406   1.404       .  A
C4405      C4410   1.397       .  A
C4405      F4423   1.358       .  S
C4406      C4411   1.485       .  S
C4406      C4407   1.406       .  A
C4407      C4408   1.403       .  A
C4407      F4412   1.358       .  S
C4408      C4409   1.411       .  A
C4408      F4424   1.358       .  S
C4409      C4410   1.412       .  A
C4410      F4413   1.358       .  S
C4411      C4414   1.401       .  A
C4411      C4418   1.406       .  A
C4414      C4415   1.396       .  A
C4414      F4419   1.358       .  S
C4415      C4416   1.415       .  A
C4415      F4421   1.358       .  S
C4416      C4417   1.413       .  A
C4417      C4418   1.404       .  A
C4417      F4420   1.358       .  S
C4418      F4422   1.358       .  S
C4425      C4426   1.404       .  A
C4425      C4430   1.400       .  A
C4425      F4443   1.358       .  S
C4426      C4431   1.478       .  S
C4426      C4427   1.403       .  A
C4427      C4428   1.399       .  A
C4427      F4432   1.358       .  S
C4428      C4429   1.410       .  A
C4428      F4444   1.358       .  S
C4429      C4430   1.409       .  A
C4430      F4433   1.358       .  S
C4431      C4434   1.404       .  A
C4431      C4438   1.401       .  A
C4434      C4435   1.400       .  A
C4434      F4439   1.357       .  S
C4435      C4436   1.409       .  A
C4435      F4441   1.357       .  S
C4436      C4437   1.414       .  A
C4437      C4438   1.397       .  A
C4437      F4440   1.358       .  S
C4438      F4442   1.358       .  S
C4445      C4446   1.407       .  A
C4445      C4450   1.401       .  A
C4445      F4463   1.358       .  S
C4446      C4451   1.479       .  S
C4446      C4447   1.402       .  A
C4447      C4448   1.395       .  A
C4447      F4452   1.358       .  S
C4448      C4449   1.410       .  A
C4448      F4464   1.359       .  S
C4449      C4450   1.406       .  A
C4450      F4453   1.358       .  S
C4451      C4454   1.406       .  A
C4451      C4458   1.404       .  A
C4454      C4455   1.399       .  A
C4454      F4459   1.358       .  S
C4455      C4456   1.407       .  A
C4455      F4461   1.357       .  S
C4456      C4457   1.408       .  A
C4457      C4458   1.398       .  A
C4457      F4460   1.358       .  S
C4458      F4462   1.358       .  S
C4465      C4466   1.408       .  A
C4465      C4470   1.405       .  A
C4465      F4483   1.358       .  S
C4466      C4471   1.490       .  S
C4466      C4467   1.404       .  A
C4467      C4468   1.397       .  A
C4467      F4472   1.358       .  S
C4468      C4469   1.414       .  A
C4468      F4484   1.358       .  S
C4469      C4470   1.413       .  A
C4470      F4473   1.358       .  S
C4471      C4474   1.409       .  A
C4471      C4478   1.406       .  A
C4474      C4475   1.404       .  A
C4474      F4479   1.358       .  S
C4475      C4476   1.407       .  A
C4475      F4481   1.358       .  S
C4476      C4477   1.409       .  A
C4477      C4478   1.398       .  A
C4477      F4480   1.358       .  S
C4478      F4482   1.358       .  S
C4485      C4486   1.403       .  A
C4485      C4490   1.395       .  A
C4485      F4503   1.358       .  S
C4486      C4491   1.485       .  S
C4486      C4487   1.406       .  A
C4487      C4488   1.406       .  A
C4487      F4492   1.357       .  S
C4488      C4489   1.413       .  A
C4488      F4504   1.358       .  S
C4489      C4490   1.413       .  A
C4490      F4493   1.358       .  S
C4491      C4494   1.408       .  A
C4491      C4498   1.403       .  A
C4494      C4495   1.407       .  A
C4494      F4499   1.358       .  S
C4495      C4496   1.410       .  A
C4495      F4501   1.358       .  S
C4496      C4497   1.409       .  A
C4497      C4498   1.394       .  A
C4497      F4500   1.358       .  S
C4498      F4502   1.358       .  S
C4505      C4506   1.408       .  A
C4505      C4510   1.404       .  A
C4505      F4523   1.358       .  S
C4506      C4511   1.484       .  S
C4506      C4507   1.403       .  A
C4507      C4508   1.397       .  A
C4507      F4512   1.358       .  S
C4508      C4509   1.410       .  A
C4508      F4524   1.359       .  S
C4509      C4510   1.406       .  A
C4510      F4513   1.358       .  S
C4511      C4514   1.403       .  A
C4511      C4518   1.404       .  A
C4514      C4515   1.401       .  A
C4514      F4519   1.358       .  S
C4515      C4516   1.416       .  A
C4515      F4521   1.358       .  S
C4516      C4517   1.414       .  A
C4517      C4518   1.400       .  A
C4517      F4520   1.358       .  S
C4518      F4522   1.358       .  S
C4525      C4526   1.408       .  A
C4525      C4530   1.402       .  A
C4525      F4543   1.358       .  S
C4526      C4531   1.482       .  S
C4526      C4527   1.402       .  A
C4527      C4528   1.392       .  A
C4527      F4532   1.358       .  S
C4528      C4529   1.413       .  A
C4528      F4544   1.358       .  S
C4529      C4530   1.409       .  A
C4530      F4533   1.358       .  S
C4531      C4534   1.402       .  A
C4531      C4538   1.407       .  A
C4534      C4535   1.396       .  A
C4534      F4539   1.358       .  S
C4535      C4536   1.414       .  A
C4535      F4541   1.358       .  S
C4536      C4537   1.410       .  A
C4537      C4538   1.399       .  A
C4537      F4540   1.358       .  S
C4538      F4542   1.358       .  S
C4545      C4546   1.403       .  A
C4545      C4550   1.395       .  A
C4545      F4563   1.358       .  S
C4546      C4551   1.475       .  S
C4546      C4547   1.403       .  A
C4547      C4548   1.400       .  A
C4547      F4552   1.358       .  S
C4548      C4549   1.411       .  A
C4548      F4564   1.358       .  S
C4549      C4550   1.408       .  A
C4550      F4553   1.358       .  S
C4551      C4554   1.399       .  A
C4551      C4558   1.405       .  A
C4554      C4555   1.393       .  A
C4554      F4559   1.358       .  S
C4555      C4556   1.414       .  A
C4555      F4561   1.358       .  S
C4556      C4557   1.410       .  A
C4557      C4558   1.402       .  A
C4557      F4560   1.358       .  S
C4558      F4562   1.358       .  S
C4565      C4566   1.405       .  A
C4565      C4570   1.404       .  A
C4565      F4583   1.358       .  S
C4566      C4571   1.485       .  S
C4566      C4567   1.405       .  A
C4567      C4568   1.399       .  A
C4567      F4572   1.358       .  S
C4568      C4569   1.409       .  A
C4568      F4584   1.358       .  S
C4569      C4570   1.412       .  A
C4570      F4573   1.358       .  S
C4571      C4574   1.406       .  A
C4571      C4578   1.404       .  A
C4574      C4575   1.405       .  A
C4574      F4579   1.358       .  S
C4575      C4576   1.411       .  A
C4575      F4581   1.358       .  S
C4576      C4577   1.410       .  A
C4577      C4578   1.398       .  A
C4577      F4580   1.358       .  S
C4578      F4582   1.358       .  S
C4585      C4586   1.402       .  A
C4585      C4590   1.401       .  A
C4585      F4603   1.358       .  S
C4586      C4591   1.482       .  S
C4586      C4587   1.404   1_545  A
C4587      C4588   1.398       .  A
C4587      F4592   1.358       .  S
C4588      C4589   1.413   1_565  A
C4588      F4604   1.358       .  S
C4589      C4590   1.414       .  A
C4590      F4593   1.358       .  S
C4591      C4594   1.400   1_545  A
C4591      C4598   1.408       .  A
C4594      C4595   1.394       .  A
C4594      F4599   1.358       .  S
C4595      C4596   1.411   1_565  A
C4595      F4601   1.358       .  S
C4596      C4597   1.409       .  A
C4597      C4598   1.405       .  A
C4597      F4600   1.358       .  S
C4598      F4602   1.358       .  S
C4605      C4606   1.400       .  A
C4605      C4610   1.398       .  A
C4605      F4623   1.358       .  S
C4606      C4611   1.477       .  S
C4606      C4607   1.403       .  A
C4607      C4608   1.402       .  A
C4607      F4612   1.358       .  S
C4608      C4609   1.413       .  A
C4608      F4624   1.358       .  S
C4609      C4610   1.414       .  A
C4610      F4613   1.358       .  S
C4611      C4614   1.404       .  A
C4611      C4618   1.401       .  A
C4614      C4615   1.403       .  A
C4614      F4619   1.358       .  S
C4615      C4616   1.411       .  A
C4615      F4621   1.358       .  S
C4616      C4617   1.412       .  A
C4617      C4618   1.397       .  A
C4617      F4620   1.358       .  S
C4618      F4622   1.358       .  S
C4625      C4626   1.401   1_565  A
C4625      C4630   1.396       .  A
C4625      F4643   1.358       .  S
C4626      C4631   1.482       .  S
C4626      C4627   1.407       .  A
C4627      C4628   1.402       .  A
C4627      F4632   1.358       .  S
C4628      C4629   1.410   1_545  A
C4628      F4644   1.358       .  S
C4629      C4630   1.414       .  A
C4630      F4633   1.358       .  S
C4631      C4634   1.405       .  A
C4631      C4638   1.405   1_545  A
C4634      C4635   1.399       .  A
C4634      F4639   1.358       .  S
C4635      C4636   1.408       .  A
C4635      F4641   1.358       .  S
C4636      C4637   1.409   1_545  A
C4637      C4638   1.398       .  A
C4637      F4640   1.358       .  S
C4638      F4642   1.358       .  S
C4645      C4646   1.408   1_565  A
C4645      C4650   1.403       .  A
C4645      F4663   1.358       .  S
C4646      C4651   1.483       .  S
C4646      C4647   1.404       .  A
C4647      C4648   1.396       .  A
C4647      F4652   1.358       .  S
C4648      C4649   1.409       .  A
C4648      F4664   1.358       .  S
C4649      C4650   1.409   1_545  A
C4650      F4653   1.358       .  S
C4651      C4654   1.402   1_545  A
C4651      C4658   1.408       .  A
C4654      C4655   1.396       .  A
C4654      F4659   1.358       .  S
C4655      C4656   1.412       .  A
C4655      F4661   1.358       .  S
C4656      C4657   1.408   1_565  A
C4657      C4658   1.402       .  A
C4657      F4660   1.358   1_556  S
C4658      F4662   1.358       .  S
C4665      C4666   1.404   1_565  A
C4665      C4670   1.401       .  A
C4665      F4683   1.358       .  S
C4666      C4671   1.476       .  S
C4666      C4667   1.399       .  A
C4667      C4668   1.395       .  A
C4667      F4672   1.358       .  S
C4668      C4669   1.416       .  A
C4668      F4684   1.358       .  S
C4669      C4670   1.412   1_545  A
C4670      F4673   1.358       .  S
C4671      C4674   1.405       .  A
C4671      C4678   1.403   1_545  A
C4674      C4675   1.398       .  A
C4674      F4679   1.358       .  S
C4675      C4676   1.406       .  A
C4675      F4681   1.358       .  S
C4676      C4677   1.407   1_545  A
C4677      C4678   1.397       .  A
C4677      F4680   1.358       .  S
C4678      F4682   1.358       .  S
C4685      C4686   1.406       .  A
C4685      C4690   1.402       .  A
C4685      F4703   1.358       .  S
C4686      C4691   1.479       .  S
C4686      C4687   1.403       .  A
C4687      C4688   1.395       .  A
C4687      F4692   1.358   1_554  S
C4688      C4689   1.408       .  A
C4688      F4704   1.358   1_554  S
C4689      C4690   1.408       .  A
C4690      F4693   1.357       .  S
C4691      C4694   1.403       .  A
C4691      C4698   1.403       .  A
C4694      C4695   1.400       .  A
C4694      F4699   1.358       .  S
C4695      C4696   1.414       .  A
C4695      F4701   1.358       .  S
C4696      C4697   1.409       .  A
C4697      C4698   1.396       .  A
C4697      F4700   1.358       .  S
C4698      F4702   1.358       .  S
C4705      C4706   1.407   1_565  A
C4705      C4710   1.402   1_565  A
C4705      F4723   1.358       .  S
C4706      C4711   1.481       .  S
C4706      C4707   1.402       .  A
C4707      C4708   1.396       .  A
C4707      F4712   1.358       .  S
C4708      C4709   1.411       .  A
C4708      F4724   1.358       .  S
C4709      C4710   1.407       .  A
C4710      F4713   1.358   1_545  S
C4711      C4714   1.402   1_545  A
C4711      C4718   1.405       .  A
C4714      C4715   1.398       .  A
C4714      F4719   1.358       .  S
C4715      C4716   1.415   1_565  A
C4715      F4721   1.358       .  S
C4716      C4717   1.411       .  A
C4717      C4718   1.400       .  A
C4717      F4720   1.358       .  S
C4718      F4722   1.358       .  S
C4725      C4726   1.403       .  A
C4725      C4730   1.401       .  A
C4725      F4743   1.358       .  S
C4726      C4731   1.477       .  S
C4726      C4727   1.403       .  A
C4727      C4728   1.399       .  A
C4727      F4732   1.358       .  S
C4728      C4729   1.408       .  A
C4728      F4744   1.358       .  S
C4729      C4730   1.411       .  A
C4730      F4733   1.358       .  S
C4731      C4734   1.403       .  A
C4731      C4738   1.400       .  A
C4734      C4735   1.403       .  A
C4734      F4739   1.358       .  S
C4735      C4736   1.413       .  A
C4735      F4741   1.358       .  S
C4736      C4737   1.414       .  A
C4737      C4738   1.398       .  A
C4737      F4740   1.358   1_554  S
C4738      F4742   1.358   1_554  S
C4745      C4746   1.405   1_565  A
C4745      C4750   1.396       .  A
C4745      F4763   1.358       .  S
C4746      C4751   1.487       .  S
C4746      C4747   1.407       .  A
C4747      C4748   1.407       .  A
C4747      F4752   1.358       .  S
C4748      C4749   1.410       .  A
C4748      F4764   1.358       .  S
C4749      C4750   1.408   1_545  A
C4750      F4753   1.358       .  S
C4751      C4754   1.405   1_545  A
C4751      C4758   1.405       .  A
C4754      C4755   1.398       .  A
C4754      F4759   1.358       .  S
C4755      C4756   1.410   1_565  A
C4755      F4761   1.358       .  S
C4756      C4757   1.414       .  A
C4757      C4758   1.406       .  A
C4757      F4760   1.358       .  S
C4758      F4762   1.358       .  S
C4765      C4766   1.403       .  A
C4765      C4770   1.397       .  A
C4765      F4783   1.358       .  S
C4766      C4771   1.483       .  S
C4766      C4767   1.406   1_545  A
C4767      C4768   1.405       .  A
C4767      F4772   1.358       .  S
C4768      C4769   1.410   1_565  A
C4768      F4784   1.358       .  S
C4769      C4770   1.410       .  A
C4770      F4773   1.358       .  S
C4771      C4774   1.400       .  A
C4771      C4778   1.406   1_545  A
C4774      C4775   1.395       .  A
C4774      F4779   1.358       .  S
C4775      C4776   1.416       .  A
C4775      F4781   1.358       .  S
C4776      C4777   1.413   1_545  A
C4777      C4778   1.405       .  A
C4777      F4780   1.358       .  S
C4778      F4782   1.358       .  S
C4785      C4786   1.402   1_565  A
C4785      C4790   1.396       .  A
C4785      F4803   1.358       .  S
C4786      C4791   1.477       .  S
C4786      C4787   1.404       .  A
C4787      C4788   1.401       .  A
C4787      F4792   1.358       .  S
C4788      C4789   1.411       .  A
C4788      F4804   1.358       .  S
C4789      C4790   1.411   1_545  A
C4790      F4793   1.358       .  S
C4791      C4794   1.400   1_545  A
C4791      C4798   1.403       .  A
C4794      C4795   1.395       .  A
C4794      F4799   1.358       .  S
C4795      C4796   1.415   1_565  A
C4795      F4801   1.358       .  S
C4796      C4797   1.413       .  A
C4797      C4798   1.401       .  A
C4797      F4800   1.358       .  S
C4798      F4802   1.358       .  S
C4805      C4806   1.405       .  A
C4805      C4810   1.401       .  A
C4805      F4823   1.358       .  S
C4806      C4811   1.483       .  S
C4806      C4807   1.404   1_545  A
C4807      C4808   1.398       .  A
C4807      F4812   1.358       .  S
C4808      C4809   1.411   1_565  A
C4808      F4824   1.358       .  S
C4809      C4810   1.411       .  A
C4810      F4813   1.358       .  S
C4811      C4814   1.406       .  A
C4811      C4818   1.400   1_545  A
C4814      C4815   1.404       .  A
C4814      F4819   1.358       .  S
C4815      C4816   1.412       .  A
C4815      F4821   1.357       .  S
C4816      C4817   1.417   1_545  A
C4817      C4818   1.395       .  A
C4817      F4820   1.358       .  S
C4818      F4822   1.359       .  S
C4825      C4826   1.405       .  A
C4825      C4830   1.404       .  A
C4825      F4843   1.358       .  S
C4826      C4831   1.482       .  S
C4826      C4827   1.401       .  A
C4827      C4828   1.399       .  A
C4827      F4832   1.358       .  S
C4828      C4829   1.415       .  A
C4828      F4844   1.358       .  S
C4829      C4830   1.411       .  A
C4830      F4833   1.358       .  S
C4831      C4834   1.400       .  A
C4831      C4838   1.404       .  A
C4834      C4835   1.399       .  A
C4834      F4839   1.358       .  S
C4835      C4836   1.414       .  A
C4835      F4841   1.357       .  S
C4836      C4837   1.414       .  A
C4837      C4838   1.405       .  A
C4837      F4840   1.358       .  S
C4838      F4842   1.358       .  S
C4845      C4846   1.407   1_565  A
C4845      C4850   1.401       .  A
C4845      F4863   1.358       .  S
C4846      C4851   1.483       .  S
C4846      C4847   1.403       .  A
C4847      C4848   1.400       .  A
C4847      F4852   1.358       .  S
C4848      C4849   1.409       .  A
C4848      F4864   1.358       .  S
C4849      C4850   1.408   1_545  A
C4850      F4853   1.358       .  S
C4851      C4854   1.404   1_545  A
C4851      C4858   1.405       .  A
C4854      C4855   1.398       .  A
C4854      F4859   1.358       .  S
C4855      C4856   1.409   1_565  A
C4855      F4861   1.358       .  S
C4856      C4857   1.411       .  A
C4857      C4858   1.404       .  A
C4857      F4860   1.358       .  S
C4858      F4862   1.358       .  S
C4865      C4866   1.408       .  A
C4865      C4870   1.406       .  A
C4865      F4883   1.358       .  S
C4866      C4871   1.496       .  S
C4866      C4867   1.406       .  A
C4867      C4868   1.403       .  A
C4867      F4872   1.358       .  S
C4868      C4869   1.413       .  A
C4868      F4884   1.358       .  S
C4869      C4870   1.411       .  A
C4870      F4873   1.358       .  S
C4871      C4874   1.408       .  A
C4871      C4878   1.405       .  A
C4874      C4875   1.406       .  A
C4874      F4879   1.357       .  S
C4875      C4876   1.411       .  A
C4875      F4881   1.357       .  S
C4876      C4877   1.416       .  A
C4877      C4878   1.402       .  A
C4877      F4880   1.358       .  S
C4878      F4882   1.358       .  S
C4885      C4886   1.408       .  A
C4885      C4890   1.402       .  A
C4885      F4903   1.358       .  S
C4886      C4891   1.484       .  S
C4886      C4887   1.402       .  A
C4887      C4888   1.397       .  A
C4887      F4892   1.358       .  S
C4888      C4889   1.413       .  A
C4888      F4904   1.358       .  S
C4889      C4890   1.407       .  A
C4890      F4893   1.357       .  S
C4891      C4894   1.409       .  A
C4891      C4898   1.401       .  A
C4894      C4895   1.405       .  A
C4894      F4899   1.358       .  S
C4895      C4896   1.409       .  A
C4895      F4901   1.358       .  S
C4896      C4897   1.412       .  A
C4897      C4898   1.392       .  A
C4897      F4900   1.358       .  S
C4898      F4902   1.358       .  S
C4905      C4906   1.407       .  A
C4905      C4910   1.405       .  A
C4905      F4923   1.358       .  S
C4906      C4911   1.489       .  S
C4906      C4907   1.405       .  A
C4907      C4908   1.398       .  A
C4907      F4912   1.358       .  S
C4908      C4909   1.409       .  A
C4908      F4924   1.358       .  S
C4909      C4910   1.411       .  A
C4910      F4913   1.358       .  S
C4911      C4914   1.402       .  A
C4911      C4918   1.408       .  A
C4914      C4915   1.395       .  A
C4914      F4919   1.358       .  S
C4915      C4916   1.413       .  A
C4915      F4921   1.358       .  S
C4916      C4917   1.414       .  A
C4917      C4918   1.407       .  A
C4917      F4920   1.358       .  S
C4918      F4922   1.358       .  S
C4925      C4926   1.399       .  A
C4925      C4930   1.396       .  A
C4925      F4943   1.358       .  S
C4926      C4931   1.478       .  S
C4926      C4927   1.405       .  A
C4927      C4928   1.405       .  A
C4927      F4932   1.357       .  S
C4928      C4929   1.410       .  A
C4928      F4944   1.357       .  S
C4929      C4930   1.414       .  A
C4930      F4933   1.358       .  S
C4931      C4934   1.401       .  A
C4931      C4938   1.405       .  A
C4934      C4935   1.395       .  A
C4934      F4939   1.358       .  S
C4935      C4936   1.411       .  A
C4935      F4941   1.358       .  S
C4936      C4937   1.409       .  A
C4937      C4938   1.405       .  A
C4937      F4940   1.358       .  S
C4938      F4942   1.357       .  S
C4945      C4946   1.401       .  A
C4945      C4950   1.391       .  A
C4945      F4963   1.358       .  S
C4946      C4951   1.480   1_554  S
C4946      C4947   1.409       .  A
C4947      C4948   1.404       .  A
C4947      F4952   1.358       .  S
C4948      C4949   1.408       .  A
C4948      F4964   1.358       .  S
C4949      C4950   1.412       .  A
C4950      F4953   1.358       .  S
C4951      C4954   1.402       .  A
C4951      C4958   1.406       .  A
C4954      C4955   1.397       .  A
C4954      F4959   1.358       .  S
C4955      C4956   1.415       .  A
C4955      F4961   1.358       .  S
C4956      C4957   1.410       .  A
C4957      C4958   1.397       .  A
C4957      F4960   1.358       .  S
C4958      F4962   1.358       .  S
C4965      C4966   1.401       .  A
C4965      C4970   1.397       .  A
C4965      F4983   1.358       .  S
C4966      C4971   1.474       .  S
C4966      C4967   1.404       .  A
C4967      C4968   1.398       .  A
C4967      F4972   1.358       .  S
C4968      C4969   1.407       .  A
C4968      F4984   1.358       .  S
C4969      C4970   1.411       .  A
C4970      F4973   1.358       .  S
C4971      C4974   1.400       .  A
C4971      C4978   1.405       .  A
C4974      C4975   1.392       .  A
C4974      F4979   1.358       .  S
C4975      C4976   1.408       .  A
C4975      F4981   1.358       .  S
C4976      C4977   1.410       .  A
C4977      C4978   1.402       .  A
C4977      F4980   1.358       .  S
C4978      F4982   1.358       .  S
C4985      C4986   1.410       .  A
C4985      C4990   1.405       .  A
C4985      F5003   1.358       .  S
C4986      C4991   1.489   1_556  S
C4986      C4987   1.403   1_556  A
C4987      C4988   1.398   1_554  A
C4987      F4992   1.358       .  S
C4988      C4989   1.414       .  A
C4988      F5004   1.358   1_556  S
C4989      C4990   1.408       .  A
C4990      F4993   1.357       .  S
C4991      C4994   1.404       .  A
C4991      C4998   1.406       .  A
C4994      C4995   1.401       .  A
C4994      F4999   1.358       .  S
C4995      C4996   1.414       .  A
C4995      F5001   1.358       .  S
C4996      C4997   1.414       .  A
C4997      C4998   1.401       .  A
C4997      F5000   1.358       .  S
C4998      F5002   1.358       .  S
C5005      C5006   1.408       .  A
C5005      C5010   1.405       .  A
C5005      F5023   1.358       .  S
C5006      C5011   1.482       .  S
C5006      C5007   1.401       .  A
C5007      C5008   1.398       .  A
C5007      F5012   1.358       .  S
C5008      C5009   1.412       .  A
C5008      F5024   1.358       .  S
C5009      C5010   1.408       .  A
C5010      F5013   1.357       .  S
C5011      C5014   1.407       .  A
C5011      C5018   1.399       .  A
C5014      C5015   1.408       .  A
C5014      F5019   1.358       .  S
C5015      C5016   1.413       .  A
C5015      F5021   1.358       .  S
C5016      C5017   1.412       .  A
C5017      C5018   1.394       .  A
C5017      F5020   1.358       .  S
C5018      F5022   1.358       .  S
C5025      C5026   1.407       .  A
C5025      C5030   1.405       .  A
C5025      F5043   1.358       .  S
C5026      C5031   1.489       .  S
C5026      C5027   1.405       .  A
C5027      C5028   1.399       .  A
C5027      F5032   1.358       .  S
C5028      C5029   1.409       .  A
C5028      F5044   1.358       .  S
C5029      C5030   1.410       .  A
C5030      F5033   1.358       .  S
C5031      C5034   1.402       .  A
C5031      C5038   1.407       .  A
C5034      C5035   1.397       .  A
C5034      F5039   1.358       .  S
C5035      C5036   1.417       .  A
C5035      F5041   1.358       .  S
C5036      C5037   1.414       .  A
C5037      C5038   1.408       .  A
C5037      F5040   1.357       .  S
C5038      F5042   1.358       .  S
C5045      C5046   1.410       .  A
C5045      C5050   1.402       .  A
C5045      F5063   1.358       .  S
C5046      C5051   1.488       .  S
C5046      C5047   1.406       .  A
C5047      C5048   1.394       .  A
C5047      F5052   1.358       .  S
C5048      C5049   1.410       .  A
C5048      F5064   1.359       .  S
C5049      C5050   1.407       .  A
C5050      F5053   1.358       .  S
C5051      C5054   1.405       .  A
C5051      C5058   1.408       .  A
C5054      C5055   1.394       .  A
C5054      F5059   1.358       .  S
C5055      C5056   1.413       .  A
C5055      F5061   1.358       .  S
C5056      C5057   1.411       .  A
C5057      C5058   1.402       .  A
C5057      F5060   1.358       .  S
C5058      F5062   1.358       .  S
C5065      C5066   1.406       .  A
C5065      C5070   1.403       .  A
C5065      F5083   1.357       .  S
C5066      C5071   1.471       .  S
C5066      C5067   1.397       .  A
C5067      C5068   1.392       .  A
C5067      F5072   1.358       .  S
C5068      C5069   1.411       .  A
C5068      F5084   1.358       .  S
C5069      C5070   1.406       .  A
C5070      F5073   1.358       .  S
C5071      C5074   1.403       .  A
C5071      C5078   1.400       .  A
C5074      C5075   1.403       .  A
C5074      F5079   1.357       .  S
C5075      C5076   1.410       .  A
C5075      F5081   1.357       .  S
C5076      C5077   1.410       .  A
C5077      C5078   1.393       .  A
C5077      F5080   1.358       .  S
C5078      F5082   1.359       .  S
C5085      C5086   1.405       .  A
C5085      C5090   1.402       .  A
C5085      F5103   1.358       .  S
C5086      C5091   1.480       .  S
C5086      C5087   1.400       .  A
C5087      C5088   1.395       .  A
C5087      F5092   1.358       .  S
C5088      C5089   1.416       .  A
C5088      F5104   1.358       .  S
C5089      C5090   1.412       .  A
C5090      F5093   1.358       .  S
C5091      C5094   1.406       .  A
C5091      C5098   1.404       .  A
C5094      C5095   1.399       .  A
C5094      F5099   1.358       .  S
C5095      C5096   1.407       .  A
C5095      F5101   1.358       .  S
C5096      C5097   1.409       .  A
C5097      C5098   1.398       .  A
C5097      F5100   1.358       .  S
C5098      F5102   1.358       .  S
C5105      C5106   1.405       .  A
C5105      C5110   1.399       .  A
C5105      F5123   1.358       .  S
C5106      C5111   1.479       .  S
C5106      C5107   1.403       .  A
C5107      C5108   1.397       .  A
C5107      F5112   1.358       .  S
C5108      C5109   1.409       .  A
C5108      F5124   1.358       .  S
C5109      C5110   1.409       .  A
C5110      F5113   1.358       .  S
C5111      C5114   1.400       .  A
C5111      C5118   1.407       .  A
C5114      C5115   1.394       .  A
C5114      F5119   1.358       .  S
C5115      C5116   1.414       .  A
C5115      F5121   1.358       .  S
C5116      C5117   1.408       .  A
C5117      C5118   1.402       .  A
C5117      F5120   1.358       .  S
C5118      F5122   1.358       .  S
C5125      C5126   1.406       .  A
C5125      C5130   1.397       .  A
C5125      F5143   1.358       .  S
C5126      C5131   1.489       .  S
C5126      C5127   1.408       .  A
C5127      C5128   1.404       .  A
C5127      F5132   1.357       .  S
C5128      C5129   1.410       .  A
C5128      F5144   1.358       .  S
C5129      C5130   1.410       .  A
C5130      F5133   1.358       .  S
C5131      C5134   1.409       .  A
C5131      C5138   1.408       .  A
C5134      C5135   1.404       .  A
C5134      F5139   1.357       .  S
C5135      C5136   1.405       .  A
C5135      F5141   1.357       .  S
C5136      C5137   1.406       .  A
C5137      C5138   1.399       .  A
C5137      F5140   1.359       .  S
C5138      F5142   1.358       .  S
C5145      C5146   1.402   1_554  A
C5145      C5150   1.396   1_554  A
C5145      F5163   1.358       .  S
C5146      C5151   1.487   1_556  S
C5146      C5147   1.409       .  A
C5147      C5148   1.406       .  A
C5147      F5152   1.358       .  S
C5148      C5149   1.408       .  A
C5148      F5164   1.358       .  S
C5149      C5150   1.413       .  A
C5150      F5153   1.358   1_556  S
C5151      C5154   1.407       .  A
C5151      C5158   1.404       .  A
C5154      C5155   1.402       .  A
C5154      F5159   1.358       .  S
C5155      C5156   1.410       .  A
C5155      F5161   1.358       .  S
C5156      C5157   1.412       .  A
C5157      C5158   1.400       .  A
C5157      F5160   1.358       .  S
C5158      F5162   1.358       .  S
C5165      C5166   1.409       .  A
C5165      C5170   1.403       .  A
C5165      F5183   1.358       .  S
C5166      C5171   1.485       .  S
C5166      C5167   1.402       .  A
C5167      C5168   1.399       .  A
C5167      F5172   1.358       .  S
C5168      C5169   1.412       .  A
C5168      F5184   1.358       .  S
C5169      C5170   1.407       .  A
C5170      F5173   1.357       .  S
C5171      C5174   1.407       .  A
C5171      C5178   1.402       .  A
C5174      C5175   1.405       .  A
C5174      F5179   1.358       .  S
C5175      C5176   1.412       .  A
C5175      F5181   1.358       .  S
C5176      C5177   1.413       .  A
C5177      C5178   1.395       .  A
C5177      F5180   1.358       .  S
C5178      F5182   1.358       .  S
C5185      C5186   1.403       .  A
C5185      C5190   1.401       .  A
C5185      F5203   1.358       .  S
C5186      C5191   1.477       .  S
C5186      C5187   1.400       .  A
C5187      C5188   1.399       .  A
C5187      F5192   1.358       .  S
C5188      C5189   1.415       .  A
C5188      F5204   1.358       .  S
C5189      C5190   1.413       .  A
C5190      F5193   1.358       .  S
C5191      C5194   1.400       .  A
C5191      C5198   1.402       .  A
C5194      C5195   1.397       .  A
C5194      F5199   1.358       .  S
C5195      C5196   1.414       .  A
C5195      F5201   1.358       .  S
C5196      C5197   1.414       .  A
C5197      C5198   1.403       .  A
C5197      F5200   1.358       .  S
C5198      F5202   1.358       .  S
C5205      C5206   1.403       .  A
C5205      C5210   1.398       .  A
C5205      F5223   1.358       .  S
C5206      C5211   1.487       .  S
C5206      C5207   1.409       .  A
C5207      C5208   1.404       .  A
C5207      F5212   1.357       .  S
C5208      C5209   1.406       .  A
C5208      F5224   1.357       .  S
C5209      C5210   1.414       .  A
C5210      F5213   1.359       .  S
C5211      C5214   1.406       .  A
C5211      C5218   1.404       .  A
C5214      C5215   1.402       .  A
C5214      F5219   1.358       .  S
C5215      C5216   1.414       .  A
C5215      F5221   1.358       .  S
C5216      C5217   1.413       .  A
C5217      C5218   1.399       .  A
C5217      F5220   1.358       .  S
C5218      F5222   1.358       .  S
C5225      C5226   1.399       .  A
C5225      C5230   1.394       .  A
C5225      F5243   1.359       .  S
C5226      C5231   1.482       .  S
C5226      C5227   1.408       .  A
C5227      C5228   1.408       .  A
C5227      F5232   1.357       .  S
C5228      C5229   1.410       .  A
C5228      F5244   1.357       .  S
C5229      C5230   1.417       .  A
C5230      F5233   1.358       .  S
C5231      C5234   1.401       .  A
C5231      C5238   1.408       .  A
C5234      C5235   1.395       .  A
C5234      F5239   1.358       .  S
C5235      C5236   1.412       .  A
C5235      F5241   1.358       .  S
C5236      C5237   1.409       .  A
C5237      C5238   1.406       .  A
C5237      F5240   1.358       .  S
C5238      F5242   1.357       .  S
C5245      C5246   1.407       .  A
C5245      C5250   1.397       .  A
C5245      F5263   1.358       .  S
C5246      C5251   1.485       .  S
C5246      C5247   1.408       .  A
C5247      C5248   1.400       .  A
C5247      F5252   1.358       .  S
C5248      C5249   1.403       .  A
C5248      F5264   1.358       .  S
C5249      C5250   1.404       .  A
C5250      F5253   1.359       .  S
C5251      C5254   1.407       .  A
C5251      C5258   1.402       .  A
C5254      C5255   1.402       .  A
C5254      F5259   1.358       .  S
C5255      C5256   1.412       .  A
C5255      F5261   1.358       .  S
C5256      C5257   1.416       .  A
C5257      C5258   1.396       .  A
C5257      F5260   1.358       .  S
C5258      F5262   1.358       .  S
C5265      C5266   1.403       .  A
C5265      C5270   1.396       .  A
C5265      F5283   1.358       .  S
C5266      C5271   1.483       .  S
C5266      C5267   1.407       .  A
C5267      C5268   1.401       .  A
C5267      F5272   1.358       .  S
C5268      C5269   1.408       .  A
C5268      F5284   1.358       .  S
C5269      C5270   1.410       .  A
C5270      F5273   1.358       .  S
C5271      C5274   1.408       .  A
C5271      C5278   1.400       .  A
C5274      C5275   1.403       .  A
C5274      F5279   1.358       .  S
C5275      C5276   1.410       .  A
C5275      F5281   1.358       .  S
C5276      C5277   1.417       .  A
C5277      C5278   1.395       .  A
C5277      F5280   1.358       .  S
C5278      F5282   1.358       .  S
C5285      C5286   1.403       .  A
C5285      C5290   1.398       .  A
C5285      F5303   1.358       .  S
C5286      C5291   1.481       .  S
C5286      C5287   1.404       .  A
C5287      C5288   1.401       .  A
C5287      F5292   1.358       .  S
C5288      C5289   1.413       .  A
C5288      F5304   1.358       .  S
C5289      C5290   1.412       .  A
C5290      F5293   1.358       .  S
C5291      C5294   1.406       .  A
C5291      C5298   1.403       .  A
C5294      C5295   1.401       .  A
C5294      F5299   1.358       .  S
C5295      C5296   1.406       .  A
C5295      F5301   1.357       .  S
C5296      C5297   1.412       .  A
C5297      C5298   1.398       .  A
C5297      F5300   1.358       .  S
C5298      F5302   1.358       .  S
C5305      C5306   1.406       .  A
C5305      C5310   1.401       .  A
C5305      F5323   1.358       .  S
C5306      C5311   1.493       .  S
C5306      C5307   1.407       .  A
C5307      C5308   1.402       .  A
C5307      F5312   1.358       .  S
C5308      C5309   1.415       .  A
C5308      F5324   1.358       .  S
C5309      C5310   1.413       .  A
C5310      F5313   1.358       .  S
C5311      C5314   1.410       .  A
C5311      C5318   1.405       .  A
C5314      C5315   1.405       .  A
C5314      F5319   1.358       .  S
C5315      C5316   1.408       .  A
C5315      F5321   1.358       .  S
C5316      C5317   1.410       .  A
C5317      C5318   1.399       .  A
C5317      F5320   1.358       .  S
C5318      F5322   1.358       .  S
C5325      C5326   1.411       .  A
C5325      C5330   1.407       .  A
C5325      F5343   1.357       .  S
C5326      C5331   1.493       .  S
C5326      C5327   1.403       .  A
C5327      C5328   1.397       .  A
C5327      F5332   1.358       .  S
C5328      C5329   1.415       .  A
C5328      F5344   1.358       .  S
C5329      C5330   1.410       .  A
C5330      F5333   1.358       .  S
C5331      C5334   1.412       .  A
C5331      C5338   1.404       .  A
C5334      C5335   1.408       .  A
C5334      F5339   1.358       .  S
C5335      C5336   1.408       .  A
C5335      F5341   1.357       .  S
C5336      C5337   1.411       .  A
C5337      C5338   1.398       .  A
C5337      F5340   1.358       .  S
C5338      F5342   1.358       .  S
C5345      C5346   1.405       .  A
C5345      C5350   1.402       .  A
C5345      F5363   1.358       .  S
C5346      C5351   1.485       .  S
C5346      C5347   1.404       .  A
C5347      C5348   1.398       .  A
C5347      F5352   1.358       .  S
C5348      C5349   1.413       .  A
C5348      F5364   1.358       .  S
C5349      C5350   1.413       .  A
C5350      F5353   1.358       .  S
C5351      C5354   1.404       .  A
C5351      C5358   1.405       .  A
C5354      C5355   1.399       .  A
C5354      F5359   1.358       .  S
C5355      C5356   1.412       .  A
C5355      F5361   1.358       .  S
C5356      C5357   1.412       .  A
C5357      C5358   1.400       .  A
C5357      F5360   1.358       .  S
C5358      F5362   1.358       .  S
C5365      C5366   1.404       .  A
C5365      C5370   1.404       .  A
C5365      F5383   1.358       .  S
C5366      C5371   1.478       .  S
C5366      C5367   1.401       .  A
C5367      C5368   1.393       .  A
C5367      F5372   1.358       .  S
C5368      C5369   1.412       .  A
C5368      F5384   1.358       .  S
C5369      C5370   1.413       .  A
C5370      F5373   1.358       .  S
C5371      C5374   1.403       .  A
C5371      C5378   1.404       .  A
C5374      C5375   1.394       .  A
C5374      F5379   1.358       .  S
C5375      C5376   1.409       .  A
C5375      F5381   1.358       .  S
C5376      C5377   1.412       .  A
C5377      C5378   1.403       .  A
C5377      F5380   1.358       .  S
C5378      F5382   1.358       .  S
C5385      C5386   1.408       .  A
C5385      C5390   1.401       .  A
C5385      F5403   1.357       .  S
C5386      C5391   1.487       .  S
C5386      C5387   1.405       .  A
C5387      C5388   1.400       .  A
C5387      F5392   1.359       .  S
C5388      C5389   1.413       .  A
C5388      F5404   1.359       .  S
C5389      C5390   1.405       .  A
C5390      F5393   1.357       .  S
C5391      C5394   1.407       .  A
C5391      C5398   1.403       .  A
C5394      C5395   1.401       .  A
C5394      F5399   1.358       .  S
C5395      C5396   1.410       .  A
C5395      F5401   1.357       .  S
C5396      C5397   1.415       .  A
C5397      C5398   1.399       .  A
C5397      F5400   1.358       .  S
C5398      F5402   1.358       .  S
C5405      C5406   1.404       .  A
C5405      C5410   1.399       .  A
C5405      F5423   1.358       .  S
C5406      C5411   1.488       .  S
C5406      C5407   1.411       .  A
C5407      C5408   1.404       .  A
C5407      F5412   1.358       .  S
C5408      C5409   1.403       .  A
C5408      F5424   1.357       .  S
C5409      C5410   1.408       .  A
C5410      F5413   1.358       .  S
C5411      C5414   1.403       .  A
C5411      C5418   1.409       .  A
C5414      C5415   1.395       .  A
C5414      F5419   1.358       .  S
C5415      C5416   1.411       .  A
C5415      F5421   1.358       .  S
C5416      C5417   1.411       .  A
C5417      C5418   1.408       .  A
C5417      F5420   1.358       .  S
C5418      F5422   1.358       .  S
C5425      C5426   1.402       .  A
C5425      C5430   1.397       .  A
C5425      F5443   1.358   1_554  S
C5426      C5431   1.480   1_554  S
C5426      C5427   1.405       .  A
C5427      C5428   1.397       .  A
C5427      F5432   1.358       .  S
C5428      C5429   1.411       .  A
C5428      F5444   1.358       .  S
C5429      C5430   1.414       .  A
C5430      F5433   1.358       .  S
C5431      C5434   1.409       .  A
C5431      C5438   1.400       .  A
C5434      C5435   1.403       .  A
C5434      F5439   1.358       .  S
C5435      C5436   1.408       .  A
C5435      F5441   1.358       .  S
C5436      C5437   1.412       .  A
C5437      C5438   1.391       .  A
C5437      F5440   1.358       .  S
C5438      F5442   1.358       .  S
C5445      C5446   1.403       .  A
C5445      C5450   1.398       .  A
C5445      F5463   1.358       .  S
C5446      C5451   1.477       .  S
C5446      C5447   1.404       .  A
C5447      C5448   1.398       .  A
C5447      F5452   1.358       .  S
C5448      C5449   1.409       .  A
C5448      F5464   1.358       .  S
C5449      C5450   1.409       .  A
C5450      F5453   1.358       .  S
C5451      C5454   1.405       .  A
C5451      C5458   1.398       .  A
C5454      C5455   1.403       .  A
C5454      F5459   1.358       .  S
C5455      C5456   1.412       .  A
C5455      F5461   1.357       .  S
C5456      C5457   1.417       .  A
C5457      C5458   1.394       .  A
C5457      F5460   1.358       .  S
C5458      F5462   1.359       .  S
C5465      C5466   1.400       .  A
C5465      C5470   1.398       .  A
C5465      F5483   1.358       .  S
C5466      C5471   1.475       .  S
C5466      C5467   1.403       .  A
C5467      C5468   1.399       .  A
C5467      F5472   1.357       .  S
C5468      C5469   1.410       .  A
C5468      F5484   1.357       .  S
C5469      C5470   1.415       .  A
C5470      F5473   1.358       .  S
C5471      C5474   1.402       .  A
C5471      C5478   1.400       .  A
C5474      C5475   1.400       .  A
C5474      F5479   1.358       .  S
C5475      C5476   1.412       .  A
C5475      F5481   1.358       .  S
C5476      C5477   1.414       .  A
C5477      C5478   1.397       .  A
C5477      F5480   1.358       .  S
C5478      F5482   1.358       .  S
C5485      C5486   1.405       .  A
C5485      C5490   1.404       .  A
C5485      F5503   1.358       .  S
C5486      C5491   1.482       .  S
C5486      C5487   1.403       .  A
C5487      C5488   1.396       .  A
C5487      F5492   1.358       .  S
C5488      C5489   1.410       .  A
C5488      F5504   1.358       .  S
C5489      C5490   1.414       .  A
C5490      F5493   1.358       .  S
C5491      C5494   1.404       .  A
C5491      C5498   1.405       .  A
C5494      C5495   1.403       .  A
C5494      F5499   1.358       .  S
C5495      C5496   1.412       .  A
C5495      F5501   1.358       .  S
C5496      C5497   1.407       .  A
C5497      C5498   1.399       .  A
C5497      F5500   1.358       .  S
C5498      F5502   1.358       .  S
