geometry optimzed in LAMMPS
_audit_creation_date              2020-11-30 
_audit_creation_method            'lammps2cif' 
_symmetry_space_group_name_H-M    'P1' 
_symmetry_Int_Tables_number       1 
_symmetry_cell_setting            triclinic 
loop_ 
_symmetry_equiv_pos_as_xyz 
  x,y,z 
_cell_length_a                    41.78532882 
_cell_length_b                    41.545927245364695 
_cell_length_c                    72.95694621109237 
_cell_angle_alpha                 89.92623658916818 
_cell_angle_beta                  90.00633879940916 
_cell_angle_gamma                 120.3523926947874 
loop_ 
_atom_site_label 
_atom_site_type_symbol 
_atom_site_fract_x 
_atom_site_fract_y 
_atom_site_fract_z 
_atom_site_charge 
C1          C  0.33553219  0.16985703  0.53473588     0.45600
H2          H  0.33602700  0.17100232  0.51952387    -0.03400
C3          C  0.33432820  0.16715200  0.57051321     0.45700
H4          H  0.33389496  0.16591000  0.58575077    -0.03400
C5          C  0.37444976  0.19135724  0.54373897    -0.17100
C6          C  0.31337542  0.18638842  0.54379583    -0.16900
C7          C  0.31786700  0.12981225  0.54263523    -0.17200
C8          C  0.37310946  0.18955845  0.56251303    -0.17200
C9          C  0.31324486  0.18494488  0.56261157    -0.16800
C10         C  0.31750349  0.12905756  0.56142594    -0.17100
C11         C  0.16710650  0.33211001  0.46031529     0.45600
H12         H  0.16614053  0.33123002  0.44510032    -0.03400
C13         C  0.16898410  0.33441788  0.49594875     0.45700
H14         H  0.16976707  0.33536034  0.51116500    -0.03400
C15         C  0.12883700  0.31074036  0.46908319    -0.17100
C16         C  0.18931006  0.31567746  0.46852830    -0.16900
C17         C  0.18468639  0.37155810  0.46795631    -0.17200
C18         C  0.12929502  0.31165219  0.48791590    -0.17200
C19         C  0.19049911  0.31668638  0.48739270    -0.16800
C20         C  0.18586740  0.37336443  0.48676846    -0.17100
O21         O  0.13883861  0.35864605  0.71857497    -0.78400
C22         C  0.12704585  0.25068719  0.71215510     0.82700
O23         O  0.25591717  0.37724560  0.69435721    -0.79500
O24         O  0.17411507  0.27226739  0.65663622    -0.81000
O25         O  0.09376627  0.32467182  0.65854829    -0.80700
O26         O  0.12482525  0.38249057  0.69466347    -0.79400
Zn27       Zn  0.16663223  0.33512024  0.70859481     1.55700
O28         O  0.09537989  0.27187352  0.65796436    -0.80800
Cd29       Cd  0.14038102  0.36069916  0.67327611     1.59700
Cd30       Cd  0.21851439  0.36052869  0.67280946     1.59600
O31         O  0.17388856  0.40318157  0.65566363    -0.80800
O32         O  0.16655579  0.33471491  0.68225491    -1.91300
Cd33       Cd  0.14042122  0.28217666  0.67347160     1.59900
O34         O  0.22859781  0.40610790  0.65722866    -0.80700
O35         O  0.12244255  0.24468450  0.69498261    -0.79400
C36         C  0.25053595  0.37713997  0.71157115     0.83200
C37         C  0.12512634  0.37729915  0.71185605     0.82800
O38         O  0.14368438  0.28353300  0.71870862    -0.78300
C39         C  0.08072945  0.29108331  0.65331257     0.83600
O40         O  0.21819289  0.36340794  0.71835477    -0.78400
C41         C  0.20781185  0.41783425  0.65101865     0.83800
C42         C  0.20690815  0.29258075  0.65046260     0.84100
O43         O  0.22724675  0.32653222  0.65526460    -0.80800
C44         C  0.99839025  0.99858922  0.79343949     0.45600
H45         H  0.99798286  0.99809507  0.77822251    -0.03400
C46         C  0.99923040  0.99933870  0.82911404     0.45700
H47         H  0.99957344  0.99976235  0.84433744    -0.03400
C48         C  0.45988236  0.47624220  0.80190817    -0.17100
C49         C  0.02088324  0.48259603  0.80162657    -0.16900
C50         C  0.01541561  0.03770033  0.80143448    -0.17200
C51         C  0.45988404  0.47669174  0.82073510    -0.17200
C52         C  0.02158231  0.48264185  0.82047124    -0.16800
C53         C  0.01584048  0.03844409  0.82028263    -0.17100
C54         C  0.16683574  0.33446088  0.86715949     0.45600
H55         H  0.16751188  0.33559664  0.85194372    -0.03400
C56         C  0.16518565  0.33139706  0.90285828     0.45700
H57         H  0.16424398  0.33000577  0.91807924    -0.03400
C58         C  0.14578483  0.35220629  0.87606102    -0.17100
C59         C  0.14806684  0.29434000  0.87501759    -0.16900
C60         C  0.20566285  0.35463593  0.87619862    -0.17200
C61         C  0.14539079  0.35058557  0.89489042    -0.17200
C62         C  0.14720141  0.29330653  0.89377752    -0.16800
C63         C  0.20451680  0.35271295  0.89506903    -0.17100
C64         C  0.33392385  0.16687572  0.12585430     0.45600
H65         H  0.33401410  0.16623453  0.11061117    -0.03400
C66         C  0.33364178  0.16855884  0.16160205     0.45700
H67         H  0.33347791  0.16915972  0.17681947    -0.03400
C68         C  0.29536963  0.15072247  0.13401749    -0.17100
C69         C  0.34996630  0.14487012  0.13464176    -0.16900
C70         C  0.35618269  0.20600733  0.13384973    -0.17200
C71         C  0.29460294  0.15142496  0.15279215    -0.17200
C72         C  0.35033742  0.14566157  0.15346397    -0.16800
C73         C  0.35624061  0.20757581  0.15263941    -0.17100
C74         C  0.00077166  0.00287917  0.20056878     0.45600
H75         H  0.00002422  0.50226624  0.18535106    -0.03400
C76         C  0.00275070  0.00443976  0.23632937     0.45700
H77         H  0.00369663  0.00529014  0.25156797    -0.03400
C78         C  0.48267565  0.02384598  0.20925880    -0.17100
C79         C  0.48060705  0.46366595  0.20968269    -0.16900
C80         C  0.04047037  0.02230858  0.20869668    -0.17200
C81         C  0.48399278  0.02428631  0.22802745    -0.17200
C82         C  0.48197322  0.46505634  0.22851821    -0.16800
C83         C  0.04096486  0.02281295  0.22749758    -0.17100
O84         O  0.30555282  0.18786157  0.38576079    -0.78400
C85         C  0.29455073  0.08151938  0.37732139     0.82700
O86         O  0.42475163  0.21128255  0.36223465    -0.79500
O87         O  0.34234716  0.10605957  0.32219212    -0.81000
O88         O  0.26714415  0.16228173  0.32254058    -0.80700
O89         O  0.29175389  0.21240354  0.36204060    -0.79400
Zn90       Zn  0.33459187  0.16599953  0.37529044     1.55700
O91         O  0.26348604  0.10685597  0.32296465    -0.80800
Cd92       Cd  0.31097545  0.19545353  0.33996736     1.59700
Cd93       Cd  0.38787520  0.19329130  0.34044881     1.59600
O94         O  0.34787014  0.24191416  0.32489135    -0.80800
O95         O  0.33521715  0.16749448  0.34885648    -1.91300
Cd96       Cd  0.30794991  0.11547785  0.33896264     1.59900
O97         O  0.39933219  0.23834628  0.32396813    -0.80700
O98         O  0.28900027  0.07685624  0.36009992    -0.79400
C99         C  0.41839195  0.21028723  0.37936176     0.83200
C100        C  0.29141099  0.20626562  0.37920801     0.82800
O101        O  0.31238700  0.11378660  0.38447045    -0.78300
C102        C  0.25205065  0.12836393  0.31735261     0.83600
O103        O  0.38560121  0.19497129  0.38571248    -0.78400
C104        C  0.38095518  0.25392347  0.31932842     0.83800
C105        C  0.37666271  0.12564779  0.31813410     0.84100
O106        O  0.39724867  0.15826989  0.32456356    -0.80800
O107        O  0.02711440  0.05697078  0.97884175    -0.78400
C108        C  0.04269613  0.46147410  0.98252359     0.82700
O109        O  0.41215545  0.45382099  0.00073663    -0.79500
O110        O  0.49346172  0.42941712  0.03764896    -0.81000
O111        O  0.07182608  0.06207905  0.03955144    -0.80700
O112        O  0.04378905  0.09275541  0.00381850    -0.79400
Zn113      Zn  0.00174032  0.00426414  0.98730769     1.55700
O114        O  0.07221310  0.00867427  0.03791586    -0.80800
Cd115      Cd  0.02612693  0.05276883  0.02443087     1.59700
Cd116      Cd  0.44865932  0.47341104  0.02257715     1.59600
O117        O  0.49092207  0.05896065  0.04228851    -0.80800
O118        O  0.00098102  0.00146205  0.01374431    -1.91300
Cd119      Cd  0.02711461  0.47472916  0.02170457     1.59900
O120        O  0.43669559  0.00624096  0.03918703    -0.80700
O121        O  0.04380565  0.45587980  0.99960823    -0.79400
C122        C  0.41783547  0.45967621  0.98357004     0.83200
C123        C  0.04203828  0.08876874  0.98646216     0.82800
O124        O  0.02846230  0.48007662  0.97630742    -0.78300
C125        C  0.08569163  0.04190227  0.04382190     0.83600
O126        O  0.45033100  0.47898429  0.97695035    -0.78400
C127        C  0.45666525  0.03838235  0.04630873     0.83800
C128        C  0.46042841  0.41584879  0.04347503     0.84100
O129        O  0.44005601  0.42917390  0.03883324    -0.80800
C130        C  0.07473156  0.03940633  0.23892265    -0.01200
C131        C  0.09920115  0.07790083  0.23896626    -0.09200
C132        C  0.12912606  0.09378892  0.25112691    -0.18000
C133        C  0.13537400  0.07131184  0.26356963     0.04400
C134        C  0.11128663  0.03199624  0.26268026     0.18600
C135        C  0.08102617  0.01655917  0.25061777    -0.19400
C136        C  0.11720055  0.00831234  0.27400939    -0.20700
C137        C  0.14628216  0.02283335  0.28648757    -0.19200
C138        C  0.16961723  0.06142394  0.28824964     0.20000
C139        C  0.16436971  0.08629229  0.27692775     0.02100
C140        C  0.18784121  0.12501520  0.27978897    -0.14000
C141        C  0.21552458  0.13840036  0.29316621    -0.11700
C142        C  0.22114601  0.11380449  0.30398796     0.01600
C143        C  0.19803128  0.07529571  0.30141374    -0.23900
H144        H  0.09454614  0.09578898  0.22988211     0.09600
H145        H  0.14677292  0.12366020  0.25049231     0.13200
H146        H  0.06206268  0.48665227  0.25036938     0.11900
H147        H  0.09914452  0.47832721  0.27323885     0.13100
H148        H  0.15014284  0.00372782  0.29506014     0.12100
H149        H  0.18523814  0.14570223  0.27206112     0.09200
H150        H  0.23306501  0.16827283  0.29481743     0.12500
H151        H  0.20194168  0.05597356  0.30980039     0.14400
C152        C  0.46655015  0.43244924  0.24094946    -0.01200
C153        C  0.47853706  0.40661055  0.23996571    -0.09200
C154        C  0.46614116  0.37758863  0.25271562    -0.18000
C155        C  0.44109260  0.37356650  0.26683556     0.04400
C156        C  0.42833412  0.39945760  0.26735940     0.18600
C157        C  0.44162850  0.42887626  0.25468315    -0.19400
C158        C  0.40226440  0.39578767  0.28047834    -0.20700
C159        C  0.38804979  0.36651170  0.29297895    -0.19200
C160        C  0.40042591  0.34088612  0.29304343     0.20000
C161        C  0.42784860  0.34457862  0.28028975     0.02100
C162        C  0.44096133  0.31925711  0.28167372    -0.14000
C163        C  0.42643969  0.29070535  0.29470944    -0.11700
C164        C  0.39811914  0.28608382  0.30662347     0.01600
C165        C  0.38545527  0.31149559  0.30580250    -0.23900
H166        H  0.99815489  0.40934127  0.22949758     0.09600
H167        H  0.47637852  0.35862432  0.25106617     0.13200
H168        H  0.43241037  0.44900910  0.25538828     0.11900
H169        H  0.39238501  0.41538594  0.28089899     0.13100
H170        H  0.36740143  0.36405826  0.30276256     0.12100
H171        H  0.46256968  0.32092109  0.27297282     0.09200
H172        H  0.43684394  0.27153926  0.29513830     0.12500
H173        H  0.36396103  0.30848012  0.31517714     0.14400
C174        C  0.39317581  0.11084228  0.30519490    -0.01200
C175        C  0.43176139  0.12867769  0.30329134    -0.09200
C176        C  0.44782589  0.11641650  0.29044302    -0.18000
C177        C  0.42566645  0.08579091  0.27890379     0.04400
C178        C  0.38647621  0.06783738  0.28082803     0.18600
C179        C  0.37067672  0.08025189  0.29398518    -0.19400
C180        C  0.36327048  0.03776528  0.26953538    -0.20700
C181        C  0.37815176  0.02487671  0.25640115    -0.19200
C182        C  0.41658061  0.04152359  0.25438622     0.20000
C183        C  0.44096834  0.07225460  0.26560522     0.02100
C184        C  0.47962228  0.08759888  0.26325576    -0.14000
C185        C  0.49330503  0.07231337  0.25071386    -0.11700
C186        C  0.46908334  0.04209654  0.23989667     0.01600
C187        C  0.43085591  0.02703840  0.24150901    -0.23900
H188        H  0.44978860  0.15245889  0.31174860     0.09600
H189        H  0.47765957  0.13180049  0.28982024     0.13200
H190        H  0.34074984  0.06653145  0.29521381     0.11900
H191        H  0.33338108  0.52408915  0.27088019     0.13100
H192        H  0.35947780  0.50143605  0.24790631     0.12100
H193        H  0.50004043  0.11079866  0.27114879     0.09200
H194        H  0.02300195  0.08389884  0.24954207     0.12500
H195        H  0.41229873  0.50319499  0.23318022     0.14400
C196        C  0.37452417  0.23849255  0.12165016    -0.01200
C197        C  0.40077832  0.24084509  0.10910111    -0.09200
C198        C  0.41670386  0.27003278  0.09654279    -0.18000
C199        C  0.40603607  0.29736271  0.09600033     0.04400
C200        C  0.37896919  0.29442474  0.10879711     0.18600
C201        C  0.36386634  0.26536583  0.12163398    -0.19400
C202        C  0.36635210  0.31982511  0.10835593    -0.20700
C203        C  0.37930356  0.34761361  0.09510248    -0.19200
C204        C  0.40586307  0.35119580  0.08231602     0.20000
C205        C  0.42039533  0.32678845  0.08287942     0.02100
C206        C  0.44864245  0.33292003  0.07026971    -0.14000
C207        C  0.46125434  0.36155237  0.05739403    -0.11700
C208        C  0.44589918  0.38462898  0.05653149     0.01600
C209        C  0.41821659  0.37931078  0.06901814    -0.23900
H210        H  0.40879194  0.21977065  0.10896052     0.09600
H211        H  0.43640404  0.26973176  0.08713342     0.13200
H212        H  0.34284285  0.26280765  0.13121059     0.11900
H213        H  0.34574837  0.31768891  0.11807488     0.13100
H214        H  0.36849656  0.36646910  0.09486216     0.12100
H215        H  0.46199539  0.31651517  0.07016078     0.09200
H216        H  0.48311417  0.36560205  0.04802984     0.12500
H217        H  0.40692303  0.39776805  0.06870429     0.14400
C218        C  0.11752114  0.05706277  0.05653620    -0.01200
C219        C  0.12526263  0.03294963  0.06650317    -0.09200
C220        C  0.15337555  0.04681705  0.07963087    -0.18000
C221        C  0.17506448  0.08553386  0.08305005     0.04400
C222        C  0.16825246  0.10996704  0.07224814     0.18600
C223        C  0.13931876  0.09557894  0.05940780    -0.19400
C224        C  0.19044899  0.14863514  0.07425963    -0.20700
C225        C  0.21968616  0.16367440  0.08664276    -0.19200
C226        C  0.22649895  0.14038897  0.09779997     0.20000
C227        C  0.20364850  0.10094740  0.09655484     0.02100
C228        C  0.21025424  0.07875827  0.10899733    -0.14000
C229        C  0.23926480  0.09511650  0.12161312    -0.11700
C230        C  0.26251456  0.13377919  0.12206217     0.01600
C231        C  0.25611847  0.15632372  0.11021690    -0.23900
H232        H  0.10892529  0.00306713  0.06446381     0.09600
H233        H  0.15773953  0.02657425  0.08672343     0.13200
H234        H  0.13388038  0.11448515  0.05154892     0.11900
H235        H  0.18551709  0.16739771  0.06599211     0.13100
H236        H  0.23683457  0.19374161  0.08765137     0.12100
H237        H  0.19332231  0.04878312  0.10941823     0.09200
H238        H  0.24415332  0.07751747  0.13078928     0.12500
H239        H  0.27427642  0.18635991  0.11074657     0.14400
C240        C  0.36418635  0.12562652  0.12308190    -0.01200
C241        C  0.34025575  0.09796668  0.11090292    -0.09200
C242        C  0.35356089  0.08130376  0.09888277    -0.18000
C243        C  0.39168810  0.09263135  0.09841400     0.04400
C244        C  0.41586919  0.12115845  0.11074376     0.18600
C245        C  0.40186015  0.13689893  0.12311568    -0.19400
C246        C  0.45404193  0.13463205  0.11026150    -0.20700
C247        C  0.46896583  0.12116592  0.09743307    -0.19200
C248        C  0.44598356  0.09315322  0.08510295     0.20000
C249        C  0.40689524  0.07766106  0.08576013     0.02100
C250        C  0.38484263  0.04799779  0.07366511    -0.14000
C251        C  0.40104657  0.03528191  0.06102352    -0.11700
C252        C  0.43967710  0.05184685  0.05984638     0.01600
C253        C  0.46193514  0.08057364  0.07207743    -0.23900
H254        H  0.31109002  0.08941516  0.11061527     0.09600
H255        H  0.33353129  0.06051520  0.08975216     0.13200
H256        H  0.42044583  0.15896577  0.13231913     0.11900
H257        H  0.47260091  0.15637746  0.11959399     0.13100
H258        H  0.99875106  0.13279292  0.09714423     0.12100
H259        H  0.35497897  0.03380868  0.07374192     0.09200
H260        H  0.38316753  0.01258249  0.05196738     0.12500
H261        H  0.49182586  0.09294582  0.07161556     0.14400
C262        C  0.46677855  0.04334422  0.19889651    -0.01200
C263        C  0.48113501  0.08159983  0.20160186    -0.09200
C264        C  0.46254199  0.09930424  0.19500429    -0.18000
C265        C  0.42862316  0.07911351  0.18543606     0.04400
C266        C  0.41521293  0.04064440  0.18188845     0.18600
C267        C  0.43433126  0.02318216  0.18861687    -0.19400
C268        C  0.38238774  0.01966265  0.17196617    -0.20700
C269        C  0.36263974  0.03599832  0.16539643    -0.19200
C270        C  0.37478479  0.07358534  0.16886417     0.20000
C271        C  0.40762539  0.09563906  0.17919065     0.02100
C272        C  0.41784020  0.13318059  0.18279314    -0.14000
C273        C  0.39753396  0.14862949  0.17550361    -0.11700
C274        C  0.36657773  0.12727857  0.16445447     0.01600
C275        C  0.35468244  0.08948365  0.16167775    -0.23900
H276        H  0.00633994  0.09763767  0.20946966     0.09600
H277        H  0.47519462  0.12870871  0.19779117     0.13200
H278        H  0.42306711  0.49351773  0.18660024     0.11900
H279        H  0.37198804  0.49040393  0.16917996     0.13100
H280        H  0.33758693  0.01904538  0.15755413     0.12100
H281        H  0.44170441  0.15146453  0.19095464     0.09200
H282        H  0.40714328  0.17790289  0.17774214     0.12500
H283        H  0.33046894  0.07281170  0.15321906     0.14400
C284        C  0.25930905  0.13566777  0.16318304    -0.01200
C285        C  0.24937341  0.10596689  0.17521127    -0.09200
C286        C  0.21347972  0.08614909  0.18240863    -0.18000
C287        C  0.18633098  0.09564934  0.17775603     0.04400
C288        C  0.19739328  0.12745788  0.16646779     0.18600
C289        C  0.23355873  0.14698808  0.15925128    -0.19400
C290        C  0.17211683  0.13913877  0.16222231    -0.20700
C291        C  0.13600904  0.11994996  0.16904158    -0.19200
C292        C  0.12393010  0.08795592  0.17984486     0.20000
C293        C  0.14876241  0.07492038  0.18400512     0.02100
C294        C  0.13483068  0.04148856  0.19414671    -0.14000
C295        C  0.09867201  0.02319937  0.20088582    -0.11700
C296        C  0.07514243  0.03745098  0.19784223     0.01600
C297        C  0.08742790  0.06924347  0.18685915    -0.23900
H298        H  0.26896337  0.09694274  0.17838781     0.09600
H299        H  0.20778993  0.06338441  0.19147289     0.13200
H300        H  0.24144922  0.17039669  0.15008263     0.11900
H301        H  0.18041589  0.16345747  0.15366728     0.13100
H302        H  0.11732586  0.13005071  0.16573301     0.12100
H303        H  0.15125063  0.02886983  0.19723343     0.09200
H304        H  0.08940628  0.99844488  0.20923446     0.12500
H305        H  0.06920759  0.08034409  0.18451866     0.14400
C306        C  0.46181216  0.42787409  0.19935822    -0.01200
C307        C  0.48176964  0.41917423  0.18694217    -0.09200
C308        C  0.46592446  0.38343399  0.17926414    -0.18000
C309        C  0.42925956  0.35520595  0.18373841     0.04400
C310        C  0.40846970  0.36500624  0.19554504     0.18600
C311        C  0.42487877  0.40092751  0.20326613    -0.19400
C312        C  0.37158518  0.33872938  0.19979680    -0.20700
C313        C  0.35482886  0.30275566  0.19264637    -0.19200
C314        C  0.37473081  0.29176792  0.18137882     0.20000
C315        C  0.41241481  0.31773039  0.17693299     0.02100
C316        C  0.43163790  0.30486509  0.16602680    -0.14000
C317        C  0.41380008  0.26845947  0.15919411    -0.11700
C318        C  0.37622745  0.24356311  0.16284315     0.01600
C319        C  0.35703985  0.25510431  0.17431336    -0.23900
H320        H  0.51028666  0.43967620  0.18373319     0.09600
H321        H  0.48314215  0.37866716  0.16996979     0.13200
H322        H  0.40916295  0.40777785  0.21270719     0.11900
H323        H  0.35551600  0.34608726  0.20870202     0.17300
H324        H  0.32614118  0.28325464  0.19610149     0.12100
H325        H  0.46046581  0.32232629  0.16246947     0.09200
H326        H  0.42921514  0.25995053  0.15049030     0.12500
H327        H  0.32791709  0.23600076  0.17712587     0.14400
C328        C  0.23701055  0.36742532  0.90755343    -0.01200
C329        C  0.23650464  0.34530413  0.92217697    -0.09200
C330        C  0.26519769  0.35909823  0.93494469    -0.18000
C331        C  0.29590941  0.39560316  0.93330992     0.04400
C332        C  0.29708306  0.41740856  0.91802889     0.18600
C333        C  0.26709260  0.40378371  0.90584812    -0.19400
C334        C  0.32816067  0.45266906  0.91501495    -0.20700
C335        C  0.35831868  0.46668022  0.92684625    -0.19200
C336        C  0.35725337  0.44655511  0.94246824     0.20000
C337        C  0.32556799  0.41117153  0.94620334     0.02100
C338        C  0.32455787  0.39332881  0.96289499    -0.14000
C339        C  0.35423950  0.40954010  0.97511387    -0.11700
C340        C  0.38605525  0.44348981  0.97092757     0.01600
C341        C  0.38746955  0.46186275  0.95456664    -0.23900
H342        H  0.21357791  0.31714000  0.92388233     0.09600
H343        H  0.26291674  0.34024710  0.94570916     0.13200
H344        H  0.26688318  0.42210589  0.89541616     0.11900
H345        H  0.32941775  0.46923448  0.90324000     0.13100
H346        H  0.38228475  0.49378233  0.92398354     0.12100
H347        H  0.30088962  0.36726020  0.96709034     0.09200
H348        H  0.35255576  0.39510550  0.98777407     0.12500
H349        H  0.41181397  0.48858011  0.95146488     0.14400
C350        C  0.13051065  0.25930588  0.90507323    -0.01200
C351        C  0.15293809  0.24617563  0.91193120    -0.09200
C352        C  0.13951909  0.21826718  0.92521091    -0.18000
C353        C  0.10315446  0.20311956  0.93225509     0.04400
C354        C  0.07993828  0.21547168  0.92452458     0.18600
C355        C  0.09385837  0.24351229  0.91106515    -0.19400
C356        C  0.04332816  0.20040405  0.93058290    -0.20700
C357        C  0.02921967  0.17328724  0.94423167    -0.19200
C358        C  0.05162406  0.16119262  0.95240558     0.20000
C359        C  0.08912120  0.17634944  0.94672679     0.02100
C360        C  0.11104272  0.16427521  0.95591020    -0.14000
C361        C  0.09589274  0.13715766  0.96957218    -0.11700
C362        C  0.05873928  0.12147165  0.97452952     0.01600
C363        C  0.03669557  0.13364516  0.96609778    -0.23900
H364        H  0.18138323  0.25831953  0.90732604     0.09600
H365        H  0.15845576  0.20957041  0.92981519     0.13200
H366        H  0.07670062  0.25406736  0.90571574     0.11900
H367        H  0.02548936  0.20962659  0.92471337     0.13100
H368        H  0.50066563  0.16192262  0.94853700     0.12100
H369        H  0.13989264  0.17503160  0.95282545     0.09200
H370        H  0.11299202  0.12750854  0.97592197     0.12500
H371        H  0.00771161  0.12100627  0.96992062     0.14400
C372        C  0.12971902  0.36751149  0.90711382    -0.01200
C373        C  0.13933303  0.40473150  0.90481444    -0.09200
C374        C  0.12556332  0.42112235  0.91665015    -0.18000
C375        C  0.10211639  0.40077505  0.93144773     0.04400
C376        C  0.09347804  0.36329021  0.93404356     0.18600
C377        C  0.10704822  0.34699490  0.92181403    -0.19400
C378        C  0.07172874  0.34246283  0.94893594    -0.20700
C379        C  0.05869641  0.35826146  0.96150708    -0.19200
C380        C  0.06632491  0.39492642  0.95921224     0.20000
C381        C  0.08748095  0.41646372  0.94392467     0.02100
C382        C  0.09266900  0.45261724  0.94167645    -0.14000
C383        C  0.07788860  0.46688909  0.95420279    -0.11700
C384        C  0.05820911  0.44603091  0.96950710     0.01600
C385        C  0.05259547  0.41014036  0.97202110    -0.23900
H386        H  0.15804684  0.42142183  0.89393465     0.09600
H387        H  0.13452281  0.45000200  0.91408477     0.13200
H388        H  0.10010301  0.31828835  0.92376688     0.11900
H389        H  0.06514556  0.31391203  0.95099935     0.13100
H390        H  0.04228209  0.34158559  0.97302855     0.12100
H391        H  0.10740200  0.47033988  0.93021681     0.09200
H392        H  0.08221303  0.49461934  0.95202545     0.12500
H393        H  0.03667757  0.39370190  0.98372237     0.14400
C394        C  0.12737277  0.36919239  0.86561484    -0.01200
C395        C  0.14785600  0.39927699  0.85380029    -0.09200
C396        C  0.13238660  0.41975857  0.84665921    -0.18000
C397        C  0.09570020  0.41059845  0.85117342     0.04400
C398        C  0.07456307  0.37880712  0.86246271     0.18600
C399        C  0.09038626  0.35842906  0.86940324    -0.19400
C400        C  0.03795299  0.36791601  0.86709719    -0.20700
C401        C  0.02159735  0.38774816  0.86067123    -0.19200
C402        C  0.04154216  0.41929526  0.84961191     0.20000
C403        C  0.07908510  0.43154858  0.84489061     0.02100
C404        C  0.09818626  0.46415804  0.83406491    -0.14000
C405        C  0.08012402  0.48235603  0.82735828    -0.11700
C406        C  0.04252811  0.46873036  0.83112279     0.01600
C407        C  0.02376130  0.43802002  0.84280142    -0.23900
H408        H  0.17649475  0.40803582  0.85076196     0.09600
H409        H  0.14998997  0.44292503  0.83787181     0.13200
H410        H  0.07434129  0.33488330  0.87844339     0.11900
H411        H  0.02175862  0.34374611  0.87573402     0.13100
H412        H  0.49305932  0.37827009  0.86435623     0.12100
H413        H  0.12687687  0.47587143  0.83026411     0.09200
H414        H  0.09514255  0.00628605  0.81843359     0.12500
H415        H  0.49464211  0.42736969  0.84569285     0.14400
C416        C  0.03107238  0.07366363  0.83079487    -0.01200
C417        C  0.01678992  0.09728499  0.82785087    -0.09200
C418        C  0.03565059  0.13404995  0.83411780    -0.18000
C419        C  0.06985651  0.14854473  0.84344967     0.04400
C420        C  0.08331545  0.12378465  0.84714023     0.18600
C421        C  0.06363354  0.08656848  0.84099952    -0.19400
C422        C  0.11685147  0.13661414  0.85648410    -0.20700
C423        C  0.13717093  0.17338662  0.86244629    -0.19200
C424        C  0.12461959  0.19836171  0.85910980     0.20000
C425        C  0.09108775  0.18656745  0.84931373     0.02100
C426        C  0.08025292  0.21336176  0.84598128    -0.14000
C427        C  0.10039014  0.24939428  0.85326133    -0.11700
C428        C  0.13197076  0.25986480  0.86385027     0.01600
C429        C  0.14482426  0.23481021  0.86605519    -0.23900
H430        H  0.49165402  0.08763320  0.81991240     0.09600
H431        H  0.02311057  0.15061624  0.83109975     0.13200
H432        H  0.07490561  0.06835964  0.84307357     0.11900
H433        H  0.12739045  0.11802599  0.85926129     0.13100
H434        H  0.16278192  0.18229163  0.86986458     0.12100
H435        H  0.05582959  0.20706173  0.83821723     0.09200
H436        H  0.09020957  0.26854117  0.85139939     0.12500
H437        H  0.16980955  0.24327295  0.87395555     0.14400
C438        C  0.42522159  0.45917565  0.83166923    -0.01200
C439        C  0.41202889  0.48144239  0.83891684    -0.09200
C440        C  0.37570570  0.46529398  0.84556299    -0.18000
C441        C  0.35188003  0.42611717  0.84563805     0.04400
C442        C  0.36676719  0.40364412  0.83990293     0.18600
C443        C  0.40278635  0.42028902  0.83250055    -0.19400
C444        C  0.34545026  0.36475563  0.84145857    -0.20700
C445        C  0.30989716  0.34775590  0.84892871    -0.19200
C446        C  0.29389152  0.36903789  0.85393083     0.20000
C447        C  0.31407424  0.40840643  0.85152238     0.02100
C448        C  0.29521983  0.42816385  0.85467487    -0.14000
C449        C  0.25868889  0.40983552  0.86115111    -0.11700
C450        C  0.24070848  0.37189556  0.86557771     0.01600
C451        C  0.25791599  0.35133764  0.86144534    -0.23900
H452        H  0.42915585  0.01155927  0.83838354     0.09600
H453        H  0.36699113  0.48401948  0.85067637     0.13200
H454        H  0.41319638  0.40306100  0.82702716     0.11900
H455        H  0.35666892  0.34741977  0.83725052     0.13100
H456        H  0.29453386  0.31768486  0.85046853     0.12100
H457        H  0.30795155  0.45768252  0.85203907     0.09200
H458        H  0.24525908  0.42583849  0.86387697     0.12500
H459        H  0.24348114  0.32167598  0.86439200     0.14400
C460        C  0.42687328  0.45736521  0.78986728    -0.01200
C461        C  0.42760687  0.43668574  0.77491624    -0.09200
C462        C  0.39945305  0.42279919  0.76184498    -0.18000
C463        C  0.36933560  0.42907301  0.76340597     0.04400
C464        C  0.36778167  0.44844074  0.77913324     0.18600
C465        C  0.39680151  0.46304458  0.79192781    -0.19400
C466        C  0.33756268  0.45363985  0.78185076    -0.20700
C467        C  0.30873697  0.44000021  0.76924171    -0.19200
C468        C  0.31008883  0.42197776  0.75331776     0.20000
C469        C  0.34076086  0.41690032  0.74995769     0.02100
C470        C  0.34181050  0.40056061  0.73311919    -0.14000
C471        C  0.31308369  0.38885947  0.72041485    -0.11700
C472        C  0.28225571  0.39244772  0.72422357     0.01600
C473        C  0.28095721  0.40913050  0.74065593    -0.23900
H474        H  0.45056362  0.43180600  0.77315182     0.09600
H475        H  0.40199200  0.40715241  0.75073512     0.13200
H476        H  0.39655192  0.98005957  0.80306669     0.11900
H477        H  0.33607420  0.96810016  0.79388869     0.13100
H478        H  0.28549999  0.44410466  0.77181862     0.12100
H479        H  0.36463933  0.39685243  0.72925971     0.09200
H480        H  0.31451829  0.37602633  0.70776146     0.12500
H481        H  0.25728186  0.41240709  0.74351527     0.14400
C482        C  0.11265091  0.21908693  0.72498140    -0.01200
C483        C  0.13030440  0.22331536  0.74183814    -0.09200
C484        C  0.11606428  0.19444284  0.75460681    -0.18000
C485        C  0.08306415  0.16047635  0.75101377     0.04400
C486        C  0.06488879  0.15660499  0.73397663     0.18600
C487        C  0.08028455  0.18546475  0.72097482    -0.19400
C488        C  0.03096284  0.12440805  0.73024618    -0.20700
C489        C  0.01420974  0.09628226  0.74328082    -0.19200
C490        C  0.03172471  0.09905519  0.76003489     0.20000
C491        C  0.06695881  0.13064078  0.76391054     0.02100
C492        C  0.08481449  0.13065253  0.78037103    -0.14000
C493        C  0.06803987  0.10079378  0.79256130    -0.11700
C494        C  0.03242552  0.07071942  0.78915352     0.01600
C495        C  0.01447555  0.07006457  0.77283561    -0.23900
H496        H  0.15529417  0.24922833  0.74520231     0.09600
H497        H  0.13086910  0.20005748  0.76739113     0.13200
H498        H  0.06620956  0.18238307  0.70804009     0.11900
H499        H  0.01688501  0.12133480  0.71732736     0.13100
H500        H  0.48756901  0.07198613  0.74015103     0.12100
H501        H  0.11236747  0.15260548  0.78387779     0.09200
H502        H  0.08355637  0.10086876  0.80443110     0.12500
H503        H  0.48716614  0.04651115  0.76992669     0.14400
C504        C  0.10961607  0.39342047  0.72450133    -0.01200
C505        C  0.11115732  0.42701696  0.72031450    -0.09200
C506        C  0.09840883  0.44334144  0.73284256    -0.18000
C507        C  0.08313066  0.42603033  0.74988631     0.04400
C508        C  0.08040624  0.39117605  0.75368679     0.18600
C509        C  0.09411724  0.37559166  0.74116202    -0.19400
C510        C  0.06385649  0.37193884  0.76991583    -0.20700
C511        C  0.04931805  0.38632800  0.78241140    -0.19200
C512        C  0.05196216  0.42076121  0.77919962     0.20000
C513        C  0.06982261  0.44162719  0.76313567     0.02100
C514        C  0.07361230  0.47719465  0.76107231    -0.14000
C515        C  0.05895608  0.49070484  0.77404395    -0.11700
C516        C  0.03979138  0.46920552  0.78932776     0.01600
C517        C  0.03644897  0.43429744  0.79187599    -0.23900
H518        H  0.12300724  0.44113847  0.70746153     0.09600
H519        H  0.10046688  0.46921336  0.72867679     0.13200
H520        H  0.09236923  0.34922075  0.74430393     0.11900
H521        H  0.06164973  0.34530606  0.77283410     0.13100
H522        H  0.03609025  0.37051006  0.79472472     0.12100
H523        H  0.08797540  0.49537681  0.74968425     0.09200
H524        H  0.06226864  0.51806919  0.77200046     0.12500
H525        H  0.02106220  0.41726570  0.80352495     0.14400
C526        C  0.20715691  0.30076085  0.45622311    -0.01200
C527        C  0.22510265  0.32082953  0.44038016    -0.09200
C528        C  0.23906948  0.30637238  0.42752687    -0.18000
C529        C  0.23619517  0.27137831  0.43030083     0.04400
C530        C  0.22041637  0.25226959  0.44700917     0.18600
C531        C  0.20481215  0.26632700  0.45944986    -0.19400
C532        C  0.22035487  0.21931689  0.45114094    -0.20700
C533        C  0.23560295  0.20494595  0.43895110    -0.19200
C534        C  0.24942940  0.22209371  0.42194183     0.20000
C535        C  0.24888779  0.25497234  0.41717398     0.02100
C536        C  0.26012439  0.26949651  0.39928870    -0.14000
C537        C  0.27279834  0.25291312  0.38690249    -0.11700
C538        C  0.27527045  0.22177113  0.39198558     0.01600
C539        C  0.26341274  0.20638318  0.40953602    -0.23900
H540        H  0.22815459  0.34793910  0.43781335     0.09600
H541        H  0.25270470  0.32360624  0.41575114     0.13200
H542        H  0.19059098  0.25026418  0.47152576     0.11900
H543        H  0.20897205  0.20490808  0.46399086     0.13100
H544        H  0.23575131  0.17974700  0.44266201     0.12100
H545        H  0.25867093  0.29317642  0.39433275     0.09200
H546        H  0.28147060  0.26507106  0.37338090     0.12500
H547        H  0.26458187  0.18180732  0.41346059     0.14400
C548        C  0.44940717  0.22664335  0.39241802    -0.01200
C549        C  0.44666459  0.24374891  0.40836111    -0.09200
C550        C  0.47466747  0.25731630  0.42149924    -0.18000
C551        C  0.00615017  0.25343824  0.41923115     0.04400
C552        C  0.00837316  0.23532800  0.40313757     0.18600
C553        C  0.48051406  0.22291219  0.38973759    -0.19400
C554        C  0.03801438  0.22910920  0.40067363    -0.20700
C555        C  0.06567813  0.24062007  0.41383771    -0.19200
C556        C  0.06487966  0.25955174  0.42952122     0.20000
C557        C  0.03531926  0.26658642  0.43239476     0.02100
C558        C  0.03676651  0.28729751  0.44807913    -0.14000
C559        C  0.06664955  0.30095523  0.46015953    -0.11700
C560        C  0.09532455  0.29342386  0.45735965     0.01600
C561        C  0.09408452  0.27240274  0.44212804    -0.23900
H562        H  0.42259625  0.24659385  0.41069683     0.09600
H563        H  0.47037566  0.26986421  0.43344561     0.13200
H564        H  0.48228589  0.20897876  0.37754260     0.11900
H565        H  0.03967443  0.21498773  0.38853864     0.13100
H566        H  0.08821992  0.23529112  0.41157253     0.12100
H567        H  0.01601156  0.29462521  0.45105185     0.09200
H568        H  0.06779579  0.31836384  0.47146155     0.12500
H569        H  0.11650719  0.26686584  0.43984414     0.14400
C570        C  0.19989543  0.40367037  0.45525003    -0.01200
C571        C  0.17835643  0.40277725  0.44039951    -0.09200
C572        C  0.19296502  0.43071819  0.42715833    -0.18000
C573        C  0.22985756  0.46068666  0.42843072     0.04400
C574        C  0.25114107  0.46222276  0.44397925     0.18600
C575        C  0.23630189  0.43340808  0.45699676    -0.19400
C576        C  0.28707546  0.49243120  0.44639105    -0.20700
C577        C  0.30223466  0.02147546  0.43375859    -0.19200
C578        C  0.28226950  0.02030464  0.41811435     0.20000
C579        C  0.24619743  0.48938493  0.41495436     0.02100
C580        C  0.22821653  0.98835527  0.39833907    -0.14000
C581        C  0.24471380  0.01765701  0.38580454    -0.11700
C582        C  0.27920981  0.04896890  0.38955300     0.01600
C583        C  0.29808798  0.04999543  0.40560566    -0.23900
H584        H  0.15001417  0.38007427  0.43896271     0.09600
H585        H  0.17451893  0.42826662  0.41622920     0.13200
H586        H  0.25327266  0.43383158  0.46834358     0.11900
H587        H  0.30335185  0.49386859  0.45826615     0.13100
H588        H  0.32987980  0.04484450  0.43615060     0.12100
H589        H  0.20154407  0.46521601  0.39455358     0.09200
H590        H  0.22986550  0.01636285  0.37339359     0.12500
H591        H  0.32518378  0.07401874  0.40835076     0.14400
C592        C  0.22143635  0.27612165  0.63726726    -0.01200
C593        C  0.20582006  0.23737989  0.63648220    -0.09200
C594        C  0.21918629  0.22126864  0.62421027    -0.18000
C595        C  0.24860744  0.24350164  0.61208238     0.04400
C596        C  0.26333662  0.28274199  0.61235427     0.18600
C597        C  0.25008892  0.29868393  0.62506836    -0.19400
C598        C  0.29109739  0.30575188  0.59991216    -0.20700
C599        C  0.30481132  0.29064885  0.58728235    -0.19200
C600        C  0.29179430  0.25229152  0.58711053     0.20000
C601        C  0.26380987  0.22818937  0.59967134     0.02100
C602        C  0.25293178  0.18992825  0.59957287    -0.14000
C603        C  0.26898571  0.17624323  0.58744777    -0.11700
C604        C  0.29570601  0.19992323  0.57485186     0.01600
C605        C  0.30708247  0.23790385  0.57468525    -0.23900
H606        H  0.18331153  0.21932183  0.64557694     0.09600
H607        H  0.20554650  0.19126608  0.62442296     0.13200
H608        H  0.26173274  0.32867533  0.62527864     0.11900
H609        H  0.30220002  0.33564595  0.59990467     0.13100
H610        H  0.32619985  0.30917697  0.57778789     0.12100
H611        H  0.23275435  0.16998983  0.60897398     0.09200
H612        H  0.26043000  0.14689500  0.58785872     0.12500
H613        H  0.32852021  0.25633816  0.56516868     0.14400
C614        C  0.04866945  0.27427345  0.64081581    -0.01200
C615        C  0.04017893  0.24182643  0.63113834    -0.09200
C616        C  0.01222842  0.22744101  0.61800881    -0.18000
C617        C  0.49156515  0.24503783  0.61420904     0.04400
C618        C  0.49893772  0.27681120  0.62476282     0.18600
C619        C  0.02762410  0.29139744  0.63772770    -0.19400
C620        C  0.47765292  0.29382485  0.62230946    -0.20700
C621        C  0.44882677  0.27965190  0.60968743    -0.19200
C622        C  0.44154961  0.24901373  0.59878328     0.20000
C623        C  0.46349013  0.23188172  0.60051329     0.02100
C624        C  0.45657756  0.20255456  0.58833415    -0.14000
C625        C  0.42797901  0.18976898  0.57554822    -0.11700
C626        C  0.40556408  0.20566538  0.57463262     0.01600
C627        C  0.41235410  0.23524759  0.58614835    -0.23900
H628        H  0.05581472  0.22785211  0.63338229     0.09600
H629        H  0.00727737  0.20234232  0.61120234     0.13200
H630        H  0.03362908  0.31619160  0.64537575     0.11900
H631        H  0.48300966  0.31792959  0.63037734     0.13100
H632        H  0.43236767  0.29298932  0.60830188     0.12100
H633        H  0.47291680  0.18915162  0.58823208     0.09200
H634        H  0.42275525  0.16681998  0.56659776     0.12500
H635        H  0.39480432  0.24748634  0.58521612     0.14400
C636        C  0.30083842  0.09492487  0.57257841    -0.01200
C637        C  0.26255235  0.07073404  0.57232142    -0.09200
C638        C  0.24614247  0.04040952  0.58425597    -0.18000
C639        C  0.26789960  0.03363010  0.59681148     0.04400
C640        C  0.30711327  0.05710221  0.59604294     0.18600
C641        C  0.32312496  0.08784663  0.58418313    -0.19400
C642        C  0.32999591  0.05012895  0.60733012    -0.20700
C643        C  0.31471416  0.02076367  0.61975768    -0.19200
C644        C  0.27620501  0.99847768  0.62155880     0.20000
C645        C  0.25220624  0.00474868  0.61022204     0.02100
C646        C  0.21357299  0.48265175  0.61321274    -0.14000
C647        C  0.19943352  0.45516946  0.62672683    -0.11700
C648        C  0.22317685  0.44849639  0.63753769     0.01600
C649        C  0.26155442  0.47024117  0.63485385    -0.23900
H650        H  0.24522579  0.07596370  0.56318562     0.09600
H651        H  0.21645743  0.02291603  0.58335144     0.13200
H652        H  0.35294089  0.10657970  0.58405665     0.11900
H653        H  0.35991717  0.06761236  0.60659807     0.13100
H654        H  0.33312186  0.01603967  0.62833840     0.12100
H655        H  0.19358031  0.48632083  0.60558471     0.09200
H656        H  0.16964051  0.43868626  0.62851369     0.12500
H657        H  0.28015119  0.46546597  0.64326674     0.14400
C658        C  0.20981720  0.30146542  0.49834584    -0.01200
C659        C  0.18978636  0.27256112  0.51080992    -0.09200
C660        C  0.20532402  0.25252490  0.51830490    -0.18000
C661        C  0.24158807  0.26089879  0.51345341     0.04400
C662        C  0.26257989  0.29194544  0.50171063     0.18600
C663        C  0.24671086  0.31203080  0.49444688    -0.19400
C664        C  0.29895892  0.30220187  0.49691322    -0.20700
C665        C  0.31518355  0.28243565  0.50362232    -0.19200
C666        C  0.29519549  0.25142608  0.51500771     0.20000
C667        C  0.25785070  0.23978205  0.51983440     0.02100
C668        C  0.23840445  0.20737334  0.53074223    -0.14000
C669        C  0.25598291  0.18878867  0.53744192    -0.11700
C670        C  0.29340297  0.20180884  0.53359284     0.01600
C671        C  0.31258145  0.23240956  0.52190856    -0.23900
H672        H  0.16130042  0.26417218  0.51402572     0.09600
H673        H  0.18804892  0.23027623  0.52761828     0.13200
H674        H  0.26242652  0.33479527  0.48494490     0.11900
H675        H  0.31506223  0.32580825  0.48793519     0.13100
H676        H  0.34354937  0.29139655  0.49982052     0.12100
H677        H  0.20971240  0.19588312  0.53447320     0.09200
H678        H  0.24059380  0.16474298  0.54625831     0.12500
H679        H  0.34154412  0.24245639  0.51890577     0.14400
C680        C  0.20264291  0.40933713  0.49698598    -0.01200
C681        C  0.23193082  0.41878163  0.50913347    -0.09200
C682        C  0.25243988  0.45498732  0.51622629    -0.18000
C683        C  0.24407787  0.48300727  0.51139858     0.04400
C684        C  0.21282055  0.47254299  0.49994768     0.18600
C685        C  0.19253460  0.43606572  0.49289148    -0.19400
C686        C  0.20232648  0.49869590  0.49539868    -0.20700
C687        C  0.22194687  0.03499890  0.50215334    -0.19200
C688        C  0.25322493  0.04646568  0.51323668     0.20000
C689        C  0.26525365  0.02083509  0.51765859     0.02100
C690        C  0.29803688  0.03427524  0.52811086    -0.14000
C691        C  0.31652744  0.07068181  0.53490010    -0.11700
C692        C  0.30308828  0.09497470  0.53163487     0.01600
C693        C  0.27208529  0.08314255  0.52029650    -0.23900
H694        H  0.24008873  0.39852729  0.51249587     0.09600
H695        H  0.27484109  0.46026859  0.52535979     0.13200
H696        H  0.16949196  0.42870096  0.48366535     0.11900
H697        H  0.17851275  0.49090826  0.48667604     0.13100
H698        H  0.21265185  0.05430246  0.49862090     0.12100
H699        H  0.30987233  0.01719837  0.53143713     0.09200
H700        H  0.34071960  0.07950455  0.54348263     0.12500
H701        H  0.26156136  0.10184139  0.51775093     0.14400
C702        C  0.41021880  0.21141798  0.53362292    -0.01200
C703        C  0.43545372  0.24892358  0.53757938    -0.09200
C704        C  0.47185710  0.26636616  0.53098089    -0.18000
C705        C  0.48437643  0.24661118  0.52020255     0.04400
C706        C  0.45809416  0.20894753  0.51560714     0.18600
C707        C  0.42138503  0.19187186  0.52221745    -0.19400
C708        C  0.46885308  0.18819225  0.50483335    -0.20700
C709        C  0.00512834  0.20387421  0.49853875    -0.19200
C710        C  0.03171190  0.24070159  0.50289664     0.20000
C711        C  0.02191015  0.26268062  0.51386669     0.02100
C712        C  0.05015176  0.29971244  0.51791467    -0.14000
C713        C  0.08593359  0.31471818  0.51058607    -0.11700
C714        C  0.09470572  0.29339867  0.49907423     0.01600
C715        C  0.06784633  0.25600768  0.49585900    -0.23900
H716        H  0.42722889  0.26449172  0.54637769     0.09600
H717        H  0.48970058  0.29508631  0.53483622     0.13200
H718        H  0.40201185  0.16274011  0.51929317     0.11900
H719        H  0.44906092  0.15953843  0.50127683     0.13100
H720        H  0.01243186  0.18704386  0.49012876     0.12100
H721        H  0.04521503  0.31805709  0.52633763     0.09200
H722        H  0.10624717  0.34372939  0.51311199     0.12500
H723        H  0.07464366  0.23937676  0.48698004     0.14400
C724        C  0.33553230  0.66985697  0.53473578     0.45600
H725        H  0.33602704  0.67100228  0.51952374    -0.03400
C726        C  0.33432856  0.66715194  0.57051310     0.45700
H727        H  0.33389538  0.66590991  0.58575066    -0.03400
C728        C  0.37444991  0.69135732  0.54373880    -0.17100
C729        C  0.31337549  0.68638826  0.54379577    -0.16900
C730        C  0.31786729  0.62981217  0.54263510    -0.17200
C731        C  0.37310976  0.68955860  0.56251285    -0.17200
C732        C  0.31324505  0.68494470  0.56261152    -0.16800
C733        C  0.31750392  0.62905750  0.56142582    -0.17100
C734        C  0.16710647  0.83210995  0.46031531     0.45600
H735        H  0.16614029  0.83122980  0.44510033    -0.03400
C736        C  0.16898454  0.83441825  0.49594876     0.45700
H737        H  0.16976770  0.83536089  0.51116500    -0.03400
C738        C  0.12883709  0.81074043  0.46908331    -0.17100
C739        C  0.18931014  0.81567748  0.46852829    -0.16900
C740        C  0.18468644  0.87155813  0.46795621    -0.17200
C741        C  0.12929534  0.81165249  0.48791602    -0.17200
C742        C  0.19049945  0.81668666  0.48739269    -0.16800
C743        C  0.18586777  0.87336469  0.48676837    -0.17100
O744        O  0.13883875  0.85864589  0.71857503    -0.78400
C745        C  0.12704649  0.75068717  0.71215486     0.82700
O746        O  0.25591728  0.87724477  0.69435735    -0.79500
O747        O  0.17411547  0.77226762  0.65663596    -0.81000
O748        O  0.09376644  0.82467187  0.65854827    -0.80700
O749        O  0.12482530  0.88249042  0.69466357    -0.79400
Zn750      Zn  0.16663230  0.83512008  0.70859474     1.55700
O751        O  0.09538012  0.77187358  0.65796424    -0.80800
Cd752      Cd  0.14038107  0.86069910  0.67327616     1.59700
Cd753      Cd  0.21851470  0.86052881  0.67280953     1.59600
O754        O  0.17388876  0.90318176  0.65566388    -0.80800
O755        O  0.16655597  0.83471484  0.68225483    -1.91300
Cd756      Cd  0.14042158  0.78217665  0.67347136     1.59900
O757        O  0.22859816  0.90610836  0.65722895    -0.80700
O758        O  0.12244328  0.74468451  0.69498237    -0.79400
C759        C  0.25053579  0.87713875  0.71157129     0.83200
C760        C  0.12512644  0.87729900  0.71185615     0.82800
O761        O  0.14368457  0.78353293  0.71870843    -0.78300
C762        C  0.08072966  0.79108339  0.65331250     0.83600
O763        O  0.21819268  0.86340705  0.71835477    -0.78400
C764        C  0.20781212  0.91783465  0.65101897     0.83800
C765        C  0.20690858  0.79258104  0.65046242     0.84100
O766        O  0.22724710  0.82653250  0.65526448    -0.80800
C767        C  0.99839116  0.49859005  0.79343934     0.45600
H768        H  0.99798402  0.49809608  0.77822237    -0.03400
C769        C  0.99923073  0.49933900  0.82911391     0.45700
H770        H  0.99957351  0.49976234  0.84433730    -0.03400
C771        C  0.45988164  0.97624111  0.80190849    -0.17100
C772        C  0.02088286  0.98259573  0.80162666    -0.16900
C773        C  0.01541684  0.53770107  0.80143448    -0.17200
C774        C  0.45988362  0.97669097  0.82073543    -0.17200
C775        C  0.02158221  0.98264182  0.82047134    -0.16800
C776        C  0.01584144  0.53844460  0.82028264    -0.17100
C777        C  0.16683576  0.83446095  0.86716007     0.45600
H778        H  0.16751214  0.83559656  0.85194430    -0.03400
C779        C  0.16518513  0.83139738  0.90285886     0.45700
H780        H  0.16424300  0.83000619  0.91807980    -0.03400
C781        C  0.14578456  0.85220629  0.87606139    -0.17100
C782        C  0.14806699  0.79434011  0.87501825    -0.16900
C783        C  0.20566275  0.85463618  0.87619933    -0.17200
C784        C  0.14539017  0.85058560  0.89489079    -0.17200
C785        C  0.14720122  0.79330679  0.89377818    -0.16800
C786        C  0.20451649  0.85271340  0.89506978    -0.17100
C787        C  0.33392259  0.66687555  0.12585378     0.45600
H788        H  0.33401245  0.66623460  0.11061063    -0.03400
C789        C  0.33364144  0.66855831  0.16160153     0.45700
H790        H  0.33347792  0.66915901  0.17681897    -0.03400
C791        C  0.29536866  0.65072294  0.13401722    -0.17100
C792        C  0.34996455  0.64486919  0.13464089    -0.16900
C793        C  0.35618231  0.70600702  0.13384930    -0.17200
C794        C  0.29460246  0.65142522  0.15279190    -0.17200
C795        C  0.35033617  0.64566046  0.15346312    -0.16800
C796        C  0.35624068  0.70757533  0.15263898    -0.17100
C797        C  0.00077169  0.50287980  0.20056878     0.45600
H798        H  0.00002402  0.00226557  0.18535107    -0.03400
C799        C  0.00275042  0.50444032  0.23632938     0.45700
H800        H  0.00369620  0.50529067  0.25156799    -0.03400
C801        C  0.48267559  0.52384666  0.20925870    -0.17100
C802        C  0.48060703  0.96366524  0.20968269    -0.16900
C803        C  0.04047032  0.52230935  0.20869677    -0.17200
C804        C  0.48399252  0.52428688  0.22802737    -0.17200
C805        C  0.48197336  0.96505572  0.22851822    -0.16800
C806        C  0.04096465  0.52281367  0.22749767    -0.17100
O807        O  0.30555231  0.68786083  0.38576093    -0.78400
C808        C  0.29455109  0.58151908  0.37732136     0.82700
O809        O  0.42475148  0.71128242  0.36223493    -0.79500
O810        O  0.34234699  0.60606001  0.32219197    -0.81000
O811        O  0.26714451  0.66228216  0.32254048    -0.80700
O812        O  0.29175383  0.71240320  0.36204074    -0.79400
Zn813      Zn  0.33459170  0.66599919  0.37529058     1.55700
O814        O  0.26348578  0.60685613  0.32296477    -0.80800
Cd815      Cd  0.31097553  0.69545352  0.33996748     1.59700
Cd816      Cd  0.38787517  0.69329122  0.34044908     1.59600
O817        O  0.34787046  0.74191433  0.32489164    -0.80800
O818        O  0.33521704  0.66749434  0.34885662    -1.91300
Cd819      Cd  0.30794971  0.61547783  0.33896266     1.59900
O820        O  0.39933237  0.73834622  0.32396840    -0.80700
O821        O  0.28900041  0.57685606  0.36009990    -0.79400
C822        C  0.41839173  0.71028714  0.37936203     0.83200
C823        C  0.29141061  0.70626500  0.37920815     0.82800
O824        O  0.31238729  0.61378625  0.38447048    -0.78300
C825        C  0.25205072  0.62836427  0.31735260     0.83600
O826        O  0.38560097  0.69497121  0.38571271    -0.78400
C827        C  0.38095548  0.75392352  0.31932871     0.83800
C828        C  0.37666265  0.62564816  0.31813410     0.84100
O829        O  0.39724870  0.65826998  0.32456382    -0.80800
O830        O  0.02711213  0.55696958  0.97884126    -0.78400
C831        C  0.04269604  0.96147442  0.98252405     0.82700
O832        O  0.41215644  0.95382303  0.00073708    -0.79500
O833        O  0.49346159  0.92941788  0.03764927    -0.81000
O834        O  0.07182453  0.56207778  0.03955138    -0.80700
O835        O  0.04378855  0.59275393  0.00381816    -0.79400
Zn836      Zn  0.00173945  0.50426295  0.98730718     1.55700
O837        O  0.07221288  0.50867374  0.03791533    -0.80800
Cd838      Cd  0.02612575  0.55276753  0.02443057     1.59700
Cd839      Cd  0.44866017  0.97341262  0.02257765     1.59600
O840        O  0.49092026  0.55895922  0.04228772    -0.80800
O841        O  0.00098021  0.50146089  0.01374387    -1.91300
Cd842      Cd  0.02711496  0.97472990  0.02170500     1.59900
O843        O  0.43669404  0.50623920  0.03918636    -0.80700
O844        O  0.04380584  0.95588027  0.99960869    -0.79400
C845        C  0.41783632  0.95967806  0.98357048     0.83200
C846        C  0.04203665  0.58876745  0.98646180     0.82800
O847        O  0.02846231  0.98007704  0.97630794    -0.78300
C848        C  0.08569077  0.54190151  0.04382160     0.83600
O849        O  0.45033186  0.97898602  0.97695074    -0.78400
C850        C  0.45666342  0.53838080  0.04630791     0.83800
C851        C  0.46042823  0.91584958  0.04347524     0.84100
O852        O  0.44005603  0.92917497  0.03883354    -0.80800
C853        C  0.07473129  0.53940716  0.23892278    -0.01200
C854        C  0.09920066  0.57790169  0.23896655    -0.09200
C855        C  0.12912556  0.59378976  0.25112722    -0.18000
C856        C  0.13537371  0.57131257  0.26356978     0.04400
C857        C  0.11128655  0.53199697  0.26268026     0.18600
C858        C  0.08102607  0.51655991  0.25061776    -0.19400
C859        C  0.11720067  0.50831293  0.27400918    -0.20700
C860        C  0.14628237  0.52283389  0.28648735    -0.19200
C861        C  0.16961728  0.56142448  0.28824955     0.20000
C862        C  0.16436954  0.58629293  0.27692785     0.02100
C863        C  0.18784100  0.62501578  0.27978918    -0.14000
C864        C  0.21552450  0.63840086  0.29316635    -0.11700
C865        C  0.22114606  0.61380491  0.30398796     0.01600
C866        C  0.19803144  0.57529615  0.30141361    -0.23900
H867        H  0.09454551  0.59578993  0.22988248     0.09600
H868        H  0.14677229  0.62366106  0.25049274     0.13200
H869        H  0.06206255  0.98665147  0.25036952     0.11900
H870        H  0.09914417  0.97832653  0.27323919     0.13100
H871        H  0.15014321  0.50372833  0.29505977     0.12100
H872        H  0.18523780  0.64570295  0.27206142     0.09200
H873        H  0.23306489  0.66827329  0.29481765     0.12500
H874        H  0.20194197  0.55597392  0.30980012     0.14400
C875        C  0.46655036  0.93244870  0.24094948    -0.01200
C876        C  0.47853677  0.90660971  0.23996560    -0.09200
C877        C  0.46614089  0.87758774  0.25271548    -0.18000
C878        C  0.44109280  0.87356611  0.26683563     0.04400
C879        C  0.42833489  0.89945759  0.26735964     0.18600
C880        C  0.44162916  0.92887618  0.25468335    -0.19400
C881        C  0.40226581  0.89578829  0.28047884    -0.20700
C882        C  0.38805124  0.86651238  0.29297952    -0.19200
C883        C  0.40042682  0.84088639  0.29304380     0.20000
C884        C  0.42784891  0.84457831  0.28028988     0.02100
C885        C  0.44096112  0.81925638  0.28167367    -0.14000
C886        C  0.42643949  0.79070470  0.29470944    -0.11700
C887        C  0.39811952  0.78608379  0.30662373     0.01600
C888        C  0.38545621  0.81149600  0.30580295    -0.23900
H889        H  0.99815404  0.90933992  0.22949730     0.09600
H890        H  0.47637778  0.85862329  0.25106593     0.13200
H891        H  0.43241143  0.94900919  0.25538857     0.11900
H892        H  0.39238688  0.91538675  0.28089963     0.13100
H893        H  0.36740337  0.86405936  0.30276329     0.12100
H894        H  0.46256904  0.82091989  0.27297255     0.09200
H895        H  0.43684316  0.77153815  0.29513813     0.12500
H896        H  0.36396246  0.80848098  0.31517779     0.14400
C897        C  0.39317568  0.61084288  0.30519476    -0.01200
C898        C  0.43176130  0.62867827  0.30329121    -0.09200
C899        C  0.44782567  0.61641717  0.29044278    -0.18000
C900        C  0.42566621  0.58579172  0.27890350     0.04400
C901        C  0.38647595  0.56783829  0.28082771     0.18600
C902        C  0.37067655  0.58025281  0.29398488    -0.19400
C903        C  0.36327018  0.53776619  0.26953507    -0.20700
C904        C  0.37815143  0.52487751  0.25640088    -0.19200
C905        C  0.41658029  0.54152433  0.25438596     0.20000
C906        C  0.44096803  0.57225536  0.26560493     0.02100
C907        C  0.47962196  0.58759964  0.26325547    -0.14000
C908        C  0.49330470  0.57231405  0.25071363    -0.11700
C909        C  0.46908302  0.54209709  0.23989654     0.01600
C910        C  0.43085555  0.52703899  0.24150880    -0.23900
H911        H  0.44978850  0.65245918  0.31174852     0.09600
H912        H  0.47765946  0.63180117  0.28982000     0.13200
H913        H  0.34074962  0.56653245  0.29521348     0.11900
H914        H  0.33338138  0.02408819  0.27088051     0.13100
H915        H  0.35947815  0.00143529  0.24790656     0.12100
H916        H  0.50004016  0.61079955  0.27114845     0.09200
H917        H  0.02300167  0.58389958  0.24954181     0.12500
H918        H  0.41229897  0.00319430  0.23318038     0.14400
C919        C  0.37452387  0.73849235  0.12164981    -0.01200
C920        C  0.40077791  0.74084494  0.10910068    -0.09200
C921        C  0.41670336  0.77003270  0.09654238    -0.18000
C922        C  0.40603564  0.79736271  0.09600009     0.04400
C923        C  0.37896906  0.79442481  0.10879702     0.18600
C924        C  0.36386618  0.76536576  0.12163382    -0.19400
C925        C  0.36635227  0.81982548  0.10835615    -0.20700
C926        C  0.37930395  0.84761428  0.09510283    -0.19200
C927        C  0.40586306  0.85119634  0.08231619     0.20000
C928        C  0.42039486  0.82678857  0.08287924     0.02100
C929        C  0.44864142  0.83291981  0.07026923    -0.14000
C930        C  0.46125329  0.86155231  0.05739363    -0.11700
C931        C  0.44589869  0.88462945  0.05653151     0.01600
C932        C  0.41821660  0.87931155  0.06901841    -0.23900
H933        H  0.40879151  0.71977047  0.10895998     0.09600
H934        H  0.43640345  0.76973174  0.08713297     0.13200
H935        H  0.34284291  0.76280760  0.13121053     0.11900
H936        H  0.34574888  0.81768934  0.11807517     0.13100
H937        H  0.36849725  0.86647013  0.09486276     0.12100
H938        H  0.46199394  0.81651461  0.07015996     0.09200
H939        H  0.48311263  0.86560174  0.04802923     0.12500
H940        H  0.40692350  0.89776918  0.06870486     0.14400
C941        C  0.11752031  0.55706233  0.05653590    -0.01200
C942        C  0.12526304  0.53294952  0.06650233    -0.09200
C943        C  0.15337586  0.54681704  0.07963009    -0.18000
C944        C  0.17506343  0.58553374  0.08304989     0.04400
C945        C  0.16825018  0.60996670  0.07224853     0.18600
C946        C  0.13931662  0.59557845  0.05940811    -0.19400
C947        C  0.19044532  0.64863485  0.07426065    -0.20700
C948        C  0.21968234  0.66367427  0.08664390    -0.19200
C949        C  0.22649640  0.64038901  0.09780051     0.20000
C950        C  0.20364734  0.60094740  0.09655475     0.02100
C951        C  0.21025430  0.57875826  0.10899668    -0.14000
C952        C  0.23926480  0.59511671  0.12161249    -0.11700
C953        C  0.26251326  0.63377950  0.12206214     0.01600
C954        C  0.25611591  0.65632402  0.11021747    -0.23900
H955        H  0.10892667  0.50306701  0.06446252     0.09600
H956        H  0.15774081  0.52657450  0.08672221     0.13200
H957        H  0.13387728  0.61448451  0.05154967     0.11900
H958        H  0.18551252  0.66739717  0.06599362     0.13100
H959        H  0.23682967  0.69374153  0.08765301     0.12100
H960        H  0.19332355  0.54878309  0.10941707     0.09200
H961        H  0.24415443  0.57751766  0.13078820     0.12500
H962        H  0.27427289  0.68636023  0.11074755     0.14400
C963        C  0.36418432  0.62562573  0.12308069    -0.01200
C964        C  0.34025396  0.59796742  0.11090098    -0.09200
C965        C  0.35355902  0.58130452  0.09888074    -0.18000
C966        C  0.39168584  0.59263049  0.09841265     0.04400
C967        C  0.41586673  0.62115625  0.11074304     0.18600
C968        C  0.40185777  0.63689675  0.12311499    -0.19400
C969        C  0.45403924  0.63462859  0.11026136    -0.20700
C970        C  0.46896323  0.62116251  0.09743295    -0.19200
C971        C  0.44598115  0.59315101  0.08510227     0.20000
C972        C  0.40689297  0.57766005  0.08575884     0.02100
C973        C  0.38484048  0.54799767  0.07366336    -0.14000
C974        C  0.40104451  0.53528151  0.06102192    -0.11700
C975        C  0.43967504  0.55184549  0.05984536     0.01600
C976        C  0.46193287  0.58057142  0.07207683    -0.23900
H977        H  0.31108857  0.58941706  0.11061288     0.09600
H978        H  0.33352967  0.56051724  0.08974948     0.13200
H979        H  0.42044336  0.65896258  0.13231894     0.11900
H980        H  0.47259808  0.65637306  0.11959429     0.13100
H981        H  0.99874833  0.63278858  0.09714455     0.12100
H982        H  0.35497686  0.53380935  0.07373976     0.09200
H983        H  0.38316563  0.51258267  0.05196550     0.12500
H984        H  0.49182352  0.59294274  0.07161542     0.14400
C985        C  0.46677852  0.54334483  0.19889629    -0.01200
C986        C  0.48113361  0.58160006  0.20160237    -0.09200
C987        C  0.46254022  0.59930402  0.19500468    -0.18000
C988        C  0.42862264  0.57911332  0.18543547     0.04400
C989        C  0.41521408  0.54064480  0.18188699     0.18600
C990        C  0.43433264  0.52318297  0.18861563    -0.19400
C991        C  0.38239026  0.51966328  0.17196369    -0.20700
C992        C  0.36264196  0.53599853  0.16539382    -0.19200
C993        C  0.37478535  0.57358491  0.16886244     0.20000
C994        C  0.40762451  0.59563836  0.17918992     0.02100
C995        C  0.41783760  0.63317915  0.18279327    -0.14000
C996        C  0.39753120  0.64862771  0.17550359    -0.11700
C997        C  0.36657656  0.62727726  0.16445343     0.01600
C998        C  0.35468272  0.58948285  0.16167594    -0.23900
H999        H  0.00633762  0.59763771  0.20947086     0.09600
H1000       H  0.47519163  0.62870807  0.19779226     0.13200
H1001       H  0.42306463  0.99351665  0.18660212     0.11900
H1002       H  0.37198427  0.99040290  0.16918313     0.13100
H1003       H  0.33759027  0.51904582  0.15755073     0.12100
H1004       H  0.44170057  0.65146278  0.19095557     0.09200
H1005       H  0.40713926  0.67790067  0.17774284     0.12500
H1006       H  0.33047022  0.57281111  0.15321665     0.14400
C1007       C  0.25930886  0.63566828  0.16318301    -0.01200
C1008       C  0.24937307  0.60596705  0.17521102    -0.09200
C1009       C  0.21347949  0.58614951  0.18240853    -0.18000
C1010       C  0.18633103  0.59565037  0.17775627     0.04400
C1011       C  0.19739357  0.62745929  0.16646832     0.18600
C1012       C  0.23355890  0.64698926  0.15925164    -0.19400
C1013       C  0.17211741  0.63914076  0.16222316    -0.20700
C1014       C  0.13600969  0.61995206  0.16904252    -0.19200
C1015       C  0.12393044  0.58795753  0.17984544     0.20000
C1016       C  0.14876248  0.57492148  0.18400537     0.02100
C1017       C  0.13483051  0.54148925  0.19414664    -0.14000
C1018       C  0.09867186  0.52320011  0.20088577    -0.11700
C1019       C  0.07514248  0.53745202  0.19784241     0.01600
C1020       C  0.08742823  0.56924502  0.18685968    -0.23900
H1021       H  0.26896274  0.59694241  0.17838726     0.09600
H1022       H  0.20778955  0.56338453  0.19147259     0.13200
H1023       H  0.24144947  0.67039800  0.15008315     0.11900
H1024       H  0.18041664  0.66345967  0.15366836     0.13100
H1025       H  0.11732669  0.63005330  0.16573423     0.12100
H1026       H  0.15125023  0.52887020  0.19723311     0.09200
H1027       H  0.08940598  0.49844533  0.20923422     0.12500
H1028       H  0.06920811  0.58034596  0.18451944     0.14400
C1029       C  0.46181204  0.92787333  0.19935821    -0.01200
C1030       C  0.48176922  0.91917397  0.18694171    -0.09200
C1031       C  0.46592406  0.88343378  0.17926359    -0.18000
C1032       C  0.42925955  0.85520534  0.18373819     0.04400
C1033       C  0.40846996  0.86500513  0.19554529     0.18600
C1034       C  0.42487894  0.90092634  0.20326648    -0.19400
C1035       C  0.37158580  0.83872785  0.19979746    -0.20700
C1036       C  0.35482953  0.80275420  0.19264694    -0.19200
C1037       C  0.37473126  0.79176693  0.18137893     0.20000
C1038       C  0.41241493  0.81772981  0.17693271     0.02100
C1039       C  0.43163787  0.80486494  0.16602612    -0.14000
C1040       C  0.41380015  0.76845929  0.15919344    -0.11700
C1041       C  0.37622773  0.74356256  0.16284280     0.01600
C1042       C  0.35704036  0.75510339  0.17431340    -0.23900
H1043       H  0.51028592  0.93967619  0.18373248     0.09600
H1044       H  0.48314154  0.87866729  0.16996890     0.13200
H1045       H  0.40916338  0.90777625  0.21270782     0.11900
H1046       H  0.35551683  0.84608533  0.20870303     0.17300
H1047       H  0.32614211  0.78325291  0.19610233     0.12100
H1048       H  0.46046553  0.82232645  0.16246848     0.09200
H1049       H  0.42921509  0.75995066  0.15048936     0.12500
H1050       H  0.32791773  0.73599958  0.17712616     0.14400
C1051       C  0.23701018  0.86742590  0.90755435    -0.01200
C1052       C  0.23650311  0.84530591  0.92217879    -0.09200
C1053       C  0.26519628  0.85910025  0.93494645    -0.18000
C1054       C  0.29590944  0.89560406  0.93331073     0.04400
C1055       C  0.29708429  0.91740806  0.91802883     0.18600
C1056       C  0.26709366  0.90378328  0.90584818    -0.19400
C1057       C  0.32816331  0.95266712  0.91501387    -0.20700
C1058       C  0.35832142  0.96667819  0.92684509    -0.19200
C1059       C  0.35725498  0.94655477  0.94246796     0.20000
C1060       C  0.32556828  0.91117266  0.94620401     0.02100
C1061       C  0.32455717  0.89333176  0.96289641    -0.14000
C1062       C  0.35423900  0.90954328  0.97511519    -0.11700
C1063       C  0.38605594  0.94349149  0.97092805     0.01600
C1064       C  0.38747119  0.96186262  0.95456634    -0.23900
H1065       H  0.21357541  0.81714263  0.92388492     0.09600
H1066       H  0.26291428  0.84024999  0.94571170     0.13200
H1067       H  0.26688530  0.92210500  0.89541563     0.11900
H1068       H  0.32942128  0.96923129  0.90323824     0.13100
H1069       H  0.38228863  0.99377929  0.92398162     0.12100
H1070       H  0.30088802  0.86726444  0.96709242     0.09200
H1071       H  0.35255443  0.89511004  0.98777593     0.12500
H1072       H  0.41181658  0.98857894  0.95146389     0.14400
C1073       C  0.13051080  0.75930622  0.90507393    -0.01200
C1074       C  0.15293925  0.74617858  0.91193347    -0.09200
C1075       C  0.13952000  0.71827020  0.92521318    -0.18000
C1076       C  0.10315371  0.70311966  0.93225559     0.04400
C1077       C  0.07993625  0.71546813  0.92452302     0.18600
C1078       C  0.09385691  0.74350926  0.91106386    -0.19400
C1079       C  0.04332405  0.70039604  0.93057893    -0.20700
C1080       C  0.02921467  0.67327790  0.94422708    -0.19200
C1081       C  0.05162040  0.66118730  0.95240318     0.20000
C1082       C  0.08911991  0.67634960  0.94672728     0.02100
C1083       C  0.11104313  0.66428093  0.95591352    -0.14000
C1084       C  0.09589270  0.63716286  0.96957525    -0.11700
C1085       C  0.05873687  0.62147056  0.97452931     0.01600
C1086       C  0.03669127  0.63363873  0.96609481    -0.23900
H1087       H  0.18138540  0.75832433  0.90732936     0.09600
H1088       H  0.15845725  0.70957518  0.92981865     0.13200
H1089       H  0.07669812  0.75406195  0.90571302     0.11900
H1090       H  0.02548426  0.70961572  0.92470780     0.13100
H1091       H  0.50065902  0.66190934  0.94853032     0.12100
H1092       H  0.13989508  0.67504271  0.95283140     0.09200
H1093       H  0.11299366  0.62751823  0.97592732     0.12500
H1094       H  0.00770569  0.62099532  0.96991531     0.14400
C1095       C  0.12971796  0.86751130  0.90711405    -0.01200
C1096       C  0.13933216  0.90473136  0.90481477    -0.09200
C1097       C  0.12556227  0.92112214  0.91665043    -0.18000
C1098       C  0.10211499  0.90077467  0.93144788     0.04400
C1099       C  0.09347628  0.86328971  0.93404358     0.18600
C1100       C  0.10704664  0.84699445  0.92181409    -0.19400
C1101       C  0.07172656  0.84246218  0.94893584    -0.20700
C1102       C  0.05869449  0.85826093  0.96150707    -0.19200
C1103       C  0.06632351  0.89492608  0.95921239     0.20000
C1104       C  0.08747973  0.91646343  0.94392487     0.02100
C1105       C  0.09266824  0.95261714  0.94167677    -0.14000
C1106       C  0.07788817  0.96688920  0.95420320    -0.11700
C1107       C  0.05820862  0.94603097  0.96950750     0.01600
C1108       C  0.05259449  0.91014022  0.97202137    -0.23900
H1109       H  0.15804631  0.92142184  0.89393512     0.09600
H1110       H  0.13452197  0.95000176  0.91408513     0.13200
H1111       H  0.10010123  0.81828787  0.92376681     0.11900
H1112       H  0.06514302  0.81391123  0.95099913     0.13100
H1113       H  0.04228001  0.84158500  0.97302851     0.12100
H1114       H  0.10740130  0.97033979  0.93021719     0.09200
H1115       H  0.08221284  0.99461941  0.95202594     0.12500
H1116       H  0.03667650  0.89370176  0.98372264     0.14400
C1117       C  0.12737268  0.86919241  0.86561508    -0.01200
C1118       C  0.14785622  0.89927757  0.85380087    -0.09200
C1119       C  0.13238692  0.91975920  0.84665981    -0.18000
C1120       C  0.09570021  0.91059859  0.85117363     0.04400
C1121       C  0.07456281  0.87880680  0.86246262     0.18600
C1122       C  0.09038596  0.85842875  0.86940317    -0.19400
C1123       C  0.03795244  0.86791522  0.86709679    -0.20700
C1124       C  0.02159687  0.88774739  0.86067081    -0.19200
C1125       C  0.04154190  0.91929488  0.84961177     0.20000
C1126       C  0.07908508  0.93154863  0.84489077     0.02100
C1127       C  0.09818636  0.96415838  0.83406528    -0.14000
C1128       C  0.08012406  0.98235626  0.82735854    -0.11700
C1129       C  0.04252804  0.96873034  0.83112289     0.01600
C1130       C  0.02376107  0.93801966  0.84280131    -0.23900
H1131       H  0.17649526  0.90803680  0.85076283     0.09600
H1132       H  0.14999064  0.94292620  0.83787269     0.13200
H1133       H  0.07434078  0.83488267  0.87844315     0.11900
H1134       H  0.02175793  0.84374508  0.87573338     0.13100
H1135       H  0.49305871  0.87826908  0.86435558     0.12100
H1136       H  0.12687712  0.97587203  0.83026465     0.09200
H1137       H  0.09514245  0.50628573  0.81843323     0.12500
H1138       H  0.49464202  0.92736937  0.84569268     0.14400
C1139       C  0.03107332  0.57366408  0.83079497    -0.01200
C1140       C  0.01679159  0.59728595  0.82785059    -0.09200
C1141       C  0.03565245  0.63405084  0.83411758    -0.18000
C1142       C  0.06985769  0.64854502  0.84345000     0.04400
C1143       C  0.08331564  0.62378433  0.84714114     0.18600
C1144       C  0.06363373  0.58656826  0.84100020    -0.19400
C1145       C  0.11685064  0.63661312  0.85648591    -0.20700
C1146       C  0.13716986  0.67338539  0.86244847    -0.19200
C1147       C  0.12461960  0.69836112  0.85911127     0.20000
C1148       C  0.09108903  0.68656766  0.84931415     0.02100
C1149       C  0.08025559  0.71336270  0.84598073    -0.14000
C1150       C  0.10039255  0.74939514  0.85326090    -0.11700
C1151       C  0.13197162  0.75986480  0.86385100     0.01600
C1152       C  0.14482402  0.73480950  0.86605684    -0.23900
H1153       H  0.49165622  0.58763459  0.81991167     0.09600
H1154       H  0.02311293  0.65061754  0.83109925     0.13200
H1155       H  0.07490511  0.56835902  0.84307462     0.11900
H1156       H  0.12738891  0.61802453  0.85926358     0.13100
H1157       H  0.16277997  0.68228981  0.86986753     0.12100
H1158       H  0.05583353  0.70706339  0.83821570     0.09200
H1159       H  0.09021298  0.76854251  0.85139815     0.12500
H1160       H  0.16980834  0.74327163  0.87395804     0.14400
C1161       C  0.42522142  0.95917505  0.83166977    -0.01200
C1162       C  0.41202868  0.98144185  0.83891724    -0.09200
C1163       C  0.37570551  0.96529355  0.84556341    -0.18000
C1164       C  0.35187992  0.92611670  0.84563868     0.04400
C1165       C  0.36676719  0.90364359  0.83990382     0.18600
C1166       C  0.40278628  0.92028840  0.83250136    -0.19400
C1167       C  0.34545040  0.86475516  0.84145982    -0.20700
C1168       C  0.30989743  0.84775553  0.84893013    -0.19200
C1169       C  0.29389167  0.86903761  0.85393195     0.20000
C1170       C  0.31407413  0.90840599  0.85152302     0.02100
C1171       C  0.29521947  0.92816337  0.85467498    -0.14000
C1172       C  0.25868848  0.90983509  0.86115119    -0.11700
C1173       C  0.24070842  0.87189545  0.86557843     0.01600
C1174       C  0.25791619  0.85133752  0.86144657    -0.23900
H1175       H  0.42915605  0.51155967  0.83838333     0.09600
H1176       H  0.36699086  0.98401907  0.85067662     0.13200
H1177       H  0.41319637  0.90306030  0.82702810     0.11900
H1178       H  0.35666919  0.84741920  0.83725196     0.13100
H1179       H  0.29453433  0.81768463  0.85047026     0.12100
H1180       H  0.30795095  0.95768175  0.85203874     0.09200
H1181       H  0.24525850  0.92583806  0.86387666     0.12500
H1182       H  0.24348159  0.82167611  0.86439362     0.14400
C1183       C  0.42687245  0.95736335  0.78986771    -0.01200
C1184       C  0.42760661  0.93668452  0.77491651    -0.09200
C1185       C  0.39945264  0.92279744  0.76184532    -0.18000
C1186       C  0.36933447  0.92907007  0.76340657     0.04400
C1187       C  0.36777979  0.94843672  0.77913410     0.18600
C1188       C  0.39679982  0.96304124  0.79192856    -0.19400
C1189       C  0.33755995  0.95363431  0.78185200    -0.20700
C1190       C  0.30873429  0.93999451  0.76924293    -0.19200
C1191       C  0.31008708  0.92197356  0.75331863     0.20000
C1192       C  0.34075981  0.91689740  0.74995826     0.02100
C1193       C  0.34181027  0.90055921  0.73311941    -0.14000
C1194       C  0.31308370  0.88885852  0.72041495    -0.11700
C1195       C  0.28225519  0.89244571  0.72422390     0.01600
C1196       C  0.28095575  0.90912674  0.74065667    -0.23900
H1197       H  0.45056397  0.93180575  0.77315189     0.09600
H1198       H  0.40199206  0.90715131  0.75073529     0.13200
H1199       H  0.39655419  0.48006351  0.80306585     0.11900
H1200       H  0.33607754  0.46810672  0.79388724     0.13100
H1201       H  0.28549673  0.94409794  0.77182007     0.12100
H1202       H  0.36463966  0.89685207  0.72925975     0.09200
H1203       H  0.31451899  0.87602666  0.70776123     0.12500
H1204       H  0.25727999  0.91240248  0.74351622     0.14400
C1205       C  0.11265201  0.71908699  0.72498115    -0.01200
C1206       C  0.13030560  0.72331563  0.74183786    -0.09200
C1207       C  0.11606555  0.69444333  0.75460664    -0.18000
C1208       C  0.08306539  0.66047678  0.75101368     0.04400
C1209       C  0.06489004  0.65660514  0.73397650     0.18600
C1210       C  0.08028573  0.68546472  0.72097460    -0.19400
C1211       C  0.03096413  0.62440814  0.73024610    -0.20700
C1212       C  0.01421095  0.59628259  0.74328084    -0.19200
C1213       C  0.03172597  0.59905578  0.76003493     0.20000
C1214       C  0.06696007  0.63064137  0.76391053     0.02100
C1215       C  0.08481580  0.63065326  0.78037106    -0.14000
C1216       C  0.06804115  0.60079459  0.79256138    -0.11700
C1217       C  0.03242684  0.57072022  0.78915360     0.01600
C1218       C  0.01447683  0.57006531  0.77283569    -0.23900
H1219       H  0.15529542  0.74922875  0.74520199     0.09600
H1220       H  0.13087035  0.70005813  0.76739095     0.13200
H1221       H  0.06621071  0.68238290  0.70803992     0.11900
H1222       H  0.01688632  0.62133464  0.71732721     0.13100
H1223       H  0.48757036  0.57198657  0.74015116     0.12100
H1224       H  0.11236874  0.65260624  0.78387778     0.09200
H1225       H  0.08355767  0.60086968  0.80443129     0.12500
H1226       H  0.48716724  0.54651198  0.76992680     0.14400
C1227       C  0.10961622  0.89342035  0.72450147    -0.01200
C1228       C  0.11115691  0.92701654  0.72031451    -0.09200
C1229       C  0.09840838  0.94334102  0.73284254    -0.18000
C1230       C  0.08313063  0.92603019  0.74988640     0.04400
C1231       C  0.08040686  0.89117624  0.75368705     0.18600
C1232       C  0.09411797  0.87559192  0.74116231    -0.19400
C1233       C  0.06385772  0.87193940  0.76991626    -0.20700
C1234       C  0.04931930  0.88632857  0.78241182    -0.19200
C1235       C  0.05196268  0.92076140  0.77919986     0.20000
C1236       C  0.06982245  0.94162701  0.76313573     0.02100
C1237       C  0.07361135  0.97719411  0.76107215    -0.14000
C1238       C  0.05895509  0.99070430  0.77404379    -0.11700
C1239       C  0.03979104  0.96920529  0.78932780     0.01600
C1240       C  0.03644930  0.93429752  0.79187621    -0.23900
H1241       H  0.12300641  0.94113779  0.70746143     0.09600
H1242       H  0.10046608  0.96921274  0.72867666     0.13200
H1243       H  0.09237046  0.84922124  0.74430436     0.11900
H1244       H  0.06165146  0.84530682  0.77283468     0.13100
H1245       H  0.03609198  0.87051087  0.79472532     0.12100
H1246       H  0.08797382  0.99537597  0.74968393     0.09200
H1247       H  0.06226713  0.01806838  0.77200015     0.12500
H1248       H  0.02106298  0.91726598  0.80352523     0.14400
C1249       C  0.20715683  0.80076071  0.45622308    -0.01200
C1250       C  0.22510188  0.82082893  0.44037990    -0.09200
C1251       C  0.23906850  0.80637155  0.42752662    -0.18000
C1252       C  0.23619482  0.77137784  0.43030084     0.04400
C1253       C  0.22041686  0.75226968  0.44700941     0.18600
C1254       C  0.20481265  0.76632718  0.45945005    -0.19400
C1255       C  0.22035624  0.71931753  0.45114140    -0.20700
C1256       C  0.23560438  0.70494658  0.43895161    -0.19200
C1257       C  0.24942985  0.72209368  0.42194212     0.20000
C1258       C  0.24888725  0.75497168  0.41717403     0.02100
C1259       C  0.26012269  0.76949506  0.39928854    -0.14000
C1260       C  0.27279662  0.75291159  0.38690236    -0.11700
C1261       C  0.27526984  0.72177034  0.39198568     0.01600
C1262       C  0.26341313  0.70638308  0.40953632    -0.23900
H1263       H  0.22815346  0.84793824  0.43781291     0.09600
H1264       H  0.25270319  0.82360506  0.41575072     0.13200
H1265       H  0.19059195  0.75026465  0.47152609     0.11900
H1266       H  0.20897405  0.70490909  0.46399154     0.13100
H1267       H  0.23575353  0.67974814  0.44266273     0.12100
H1268       H  0.25866828  0.79317427  0.39433242     0.09200
H1269       H  0.28146802  0.76506897  0.37338060     0.12500
H1270       H  0.26458306  0.68180775  0.41346108     0.14400
C1271       C  0.44940694  0.72664323  0.39241832    -0.01200
C1272       C  0.44666398  0.74374807  0.40836161    -0.09200
C1273       C  0.47466690  0.75731538  0.42149973    -0.18000
C1274       C  0.00614999  0.75343801  0.41923144     0.04400
C1275       C  0.00837330  0.73532847  0.40313768     0.18600
C1276       C  0.48051412  0.72291265  0.38973772    -0.19400
C1277       C  0.03801492  0.72911035  0.40067350    -0.20700
C1278       C  0.06567865  0.74062115  0.41383759    -0.19200
C1279       C  0.06487984  0.75955215  0.42952128     0.20000
C1280       C  0.03531913  0.76658625  0.43239502     0.02100
C1281       C  0.03676612  0.78729696  0.44807951    -0.14000
C1282       C  0.06664930  0.80095481  0.46015985    -0.11700
C1283       C  0.09532453  0.79342384  0.45735983     0.01600
C1284       C  0.09408471  0.77240314  0.44212808    -0.23900
H1285       H  0.42259549  0.74659245  0.41069747     0.09600
H1286       H  0.47037477  0.76986267  0.43344633     0.13200
H1287       H  0.48228616  0.70897968  0.37754262     0.11900
H1288       H  0.03967525  0.71498947  0.38853840     0.13100
H1289       H  0.08822071  0.73529263  0.41157225     0.12100
H1290       H  0.01601108  0.79462429  0.45105233     0.09200
H1291       H  0.06779540  0.81836326  0.47146193     0.12500
H1292       H  0.11650754  0.76686658  0.43984406     0.14400
C1293       C  0.19989532  0.90367023  0.45524984    -0.01200
C1294       C  0.17835633  0.90277694  0.44039926    -0.09200
C1295       C  0.19296478  0.93071790  0.42715811    -0.18000
C1296       C  0.22985713  0.96068671  0.42843060     0.04400
C1297       C  0.25114066  0.96222288  0.44397914     0.18600
C1298       C  0.23630171  0.93340808  0.45699656    -0.19400
C1299       C  0.28707493  0.99243147  0.44639101    -0.20700
C1300       C  0.30223526  0.52147515  0.43375858    -0.19200
C1301       C  0.28227013  0.52030434  0.41811433     0.20000
C1302       C  0.24619688  0.98938514  0.41495433     0.02100
C1303       C  0.22821711  0.48835495  0.39833909    -0.14000
C1304       C  0.24471440  0.51765660  0.38580447    -0.11700
C1305       C  0.27921043  0.54896852  0.38955294     0.01600
C1306       C  0.29808867  0.54999504  0.40560556    -0.23900
H1307       H  0.15001406  0.88007375  0.43896244     0.09600
H1308       H  0.17451868  0.92826611  0.41622888     0.13200
H1309       H  0.25327254  0.93383162  0.46834335     0.11900
H1310       H  0.30335133  0.99386889  0.45826612     0.13100
H1311       H  0.32988045  0.54484414  0.43615055     0.12100
H1312       H  0.20154344  0.96521629  0.39455354     0.09200
H1313       H  0.22986620  0.51636238  0.37339360     0.12500
H1314       H  0.32518454  0.57401831  0.40835062     0.14400
C1315       C  0.22143680  0.77612187  0.63726713    -0.01200
C1316       C  0.20582049  0.73738008  0.63648211    -0.09200
C1317       C  0.21918678  0.72126874  0.62421026    -0.18000
C1318       C  0.24860792  0.74350170  0.61208236     0.04400
C1319       C  0.26333701  0.78274202  0.61235417     0.18600
C1320       C  0.25008930  0.79868404  0.62506820    -0.19400
C1321       C  0.29109788  0.80575190  0.59991210    -0.20700
C1322       C  0.30481192  0.79064883  0.58728235    -0.19200
C1323       C  0.29179487  0.75229153  0.58711054     0.20000
C1324       C  0.26381042  0.72818941  0.59967136     0.02100
C1325       C  0.25293230  0.68992829  0.59957292    -0.14000
C1326       C  0.26898620  0.67624322  0.58744780    -0.11700
C1327       C  0.29570645  0.69992320  0.57485186     0.01600
C1328       C  0.30708296  0.73790381  0.57468524    -0.23900
H1329       H  0.18331192  0.71932206  0.64557685     0.09600
H1330       H  0.20554709  0.69126622  0.62442303     0.13200
H1331       H  0.26173311  0.82867544  0.62527842     0.11900
H1332       H  0.30220049  0.83564587  0.59990459     0.13100
H1333       H  0.32620049  0.80917696  0.57778793     0.12100
H1334       H  0.23275495  0.66998995  0.60897399     0.09200
H1335       H  0.26043050  0.64689509  0.58785876     0.12500
H1336       H  0.32852073  0.75633813  0.56516863     0.14400
C1337       C  0.04866968  0.77427363  0.64081572    -0.01200
C1338       C  0.04017906  0.74182653  0.63113829    -0.09200
C1339       C  0.01222862  0.72744121  0.61800871    -0.18000
C1340       C  0.49156546  0.74503811  0.61420888     0.04400
C1341       C  0.49893801  0.77681145  0.62476269     0.18600
C1342       C  0.02762446  0.79139774  0.63772757    -0.19400
C1343       C  0.47765319  0.79382507  0.62230933    -0.20700
C1344       C  0.44882714  0.77965223  0.60968723    -0.19200
C1345       C  0.44155004  0.74901415  0.59878305     0.20000
C1346       C  0.46349054  0.73188210  0.60051308     0.02100
C1347       C  0.45657801  0.70255498  0.58833393    -0.14000
C1348       C  0.42797949  0.68976940  0.57554799    -0.11700
C1349       C  0.40556452  0.70566577  0.57463237     0.01600
C1350       C  0.41235459  0.73524801  0.58614809    -0.23900
H1351       H  0.05581467  0.72785208  0.63338228     0.09600
H1352       H  0.00727756  0.70234255  0.61120226     0.13200
H1353       H  0.03362947  0.81619190  0.64537562     0.11900
H1354       H  0.48300990  0.81792977  0.63037724     0.13100
H1355       H  0.43236809  0.79298969  0.60830165     0.12100
H1356       H  0.47291719  0.68915194  0.58823190     0.09200
H1357       H  0.42275570  0.66682037  0.56659756     0.12500
H1358       H  0.39480470  0.74748679  0.58521586     0.14400
C1359       C  0.30083876  0.59492474  0.57257825    -0.01200
C1360       C  0.26255266  0.57073423  0.57232135    -0.09200
C1361       C  0.24614264  0.54040956  0.58425581    -0.18000
C1362       C  0.26789977  0.53362968  0.59681113     0.04400
C1363       C  0.30711345  0.55710136  0.59604244     0.18600
C1364       C  0.32312526  0.58784597  0.58418273    -0.19400
C1365       C  0.32999600  0.55012763  0.60732946    -0.20700
C1366       C  0.31471410  0.52076222  0.61975695    -0.19200
C1367       C  0.27620496  0.49847665  0.62155822     0.20000
C1368       C  0.25220628  0.50474818  0.61022164     0.02100
C1369       C  0.21357292  0.98265175  0.61321295    -0.14000
C1370       C  0.19943355  0.95516945  0.62672706    -0.11700
C1371       C  0.22317703  0.94849691  0.63753808     0.01600
C1372       C  0.26155462  0.97024221  0.63485445    -0.23900
H1373       H  0.24522611  0.57596421  0.56318568     0.09600
H1374       H  0.21645769  0.52291645  0.58335136     0.13200
H1375       H  0.35294122  0.60657879  0.58405618     0.11900
H1376       H  0.35991723  0.56761076  0.60659736     0.13100
H1377       H  0.33312177  0.51603787  0.62833755     0.12100
H1378       H  0.19358016  0.98632042  0.60558478     0.09200
H1379       H  0.16964059  0.93868586  0.62851376     0.12500
H1380       H  0.28015140  0.96546737  0.64326742     0.14400
C1381       C  0.20981771  0.80146589  0.49834584    -0.01200
C1382       C  0.18978709  0.77256203  0.51081016    -0.09200
C1383       C  0.20532469  0.75252580  0.51830519    -0.18000
C1384       C  0.24158847  0.76089918  0.51345345     0.04400
C1385       C  0.26258013  0.79194539  0.50171039     0.18600
C1386       C  0.24671119  0.81203087  0.49444667    -0.19400
C1387       C  0.29895887  0.80220123  0.49691272    -0.20700
C1388       C  0.31518342  0.78243496  0.50362186    -0.19200
C1389       C  0.29519548  0.75142581  0.51500752     0.20000
C1390       C  0.25785097  0.73978234  0.51983449     0.02100
C1391       C  0.23840485  0.70737404  0.53074262    -0.14000
C1392       C  0.25598317  0.68878914  0.53744222    -0.11700
C1393       C  0.29340301  0.70180878  0.53359284     0.01600
C1394       C  0.31258138  0.73240914  0.52190832    -0.23900
H1395       H  0.16130126  0.76417338  0.51402615     0.09600
H1396       H  0.18804985  0.73027762  0.52761878     0.13200
H1397       H  0.26242673  0.83479507  0.48494448     0.11900
H1398       H  0.31506208  0.82580726  0.48793441     0.13100
H1399       H  0.34354899  0.79139538  0.49981986     0.12100
H1400       H  0.20971302  0.69588427  0.53447390     0.09200
H1401       H  0.24059417  0.66474377  0.54625878     0.12500
H1402       H  0.34154374  0.74245551  0.51890532     0.14400
C1403       C  0.20264351  0.90933751  0.49698581    -0.01200
C1404       C  0.23193143  0.91878204  0.50913331    -0.09200
C1405       C  0.25244048  0.95498777  0.51622610    -0.18000
C1406       C  0.24407846  0.98300769  0.51139837     0.04400
C1407       C  0.21282124  0.97254343  0.49994741     0.18600
C1408       C  0.19253531  0.93606614  0.49289123    -0.19400
C1409       C  0.20232713  0.99869631  0.49539837    -0.20700
C1410       C  0.22194634  0.53499853  0.50215359    -0.19200
C1411       C  0.25322454  0.54646531  0.51323685     0.20000
C1412       C  0.26525324  0.52083469  0.51765872     0.02100
C1413       C  0.29803661  0.53427490  0.52811085    -0.14000
C1414       C  0.31652745  0.57068155  0.53489999    -0.11700
C1415       C  0.30308835  0.59497453  0.53163477     0.01600
C1416       C  0.27208508  0.58314227  0.52029658    -0.23900
H1417       H  0.24008930  0.89852771  0.51249576     0.09600
H1418       H  0.27484168  0.96026908  0.52535965     0.13200
H1419       H  0.16949268  0.92870135  0.48366508     0.11900
H1420       H  0.17851353  0.99090868  0.48667569     0.13100
H1421       H  0.21265137  0.55430205  0.49862120     0.12100
H1422       H  0.30987207  0.51719786  0.53143712     0.09200
H1423       H  0.34071961  0.57950428  0.54348243     0.12500
H1424       H  0.26156113  0.60184103  0.51775109     0.14400
C1425       C  0.41021887  0.71141807  0.53362268    -0.01200
C1426       C  0.43545358  0.74892382  0.53757900    -0.09200
C1427       C  0.47185701  0.76636644  0.53098058    -0.18000
C1428       C  0.48437661  0.74661146  0.52020244     0.04400
C1429       C  0.45809454  0.70894764  0.51560717     0.18600
C1430       C  0.42138538  0.69187189  0.52221744    -0.19400
C1431       C  0.46885373  0.68819226  0.50483363    -0.20700
C1432       C  0.00512904  0.70387428  0.49853915    -0.19200
C1433       C  0.03171246  0.74070186  0.50289691     0.20000
C1434       C  0.02191046  0.76268098  0.51386670     0.02100
C1435       C  0.05015192  0.79971302  0.51791457    -0.14000
C1436       C  0.08593382  0.81471867  0.51058606    -0.11700
C1437       C  0.09470619  0.79339908  0.49907443     0.01600
C1438       C  0.06784692  0.75600797  0.49585934    -0.23900
H1439       H  0.42722858  0.76449192  0.54637715     0.09600
H1440       H  0.48970038  0.79508673  0.53483584     0.13200
H1441       H  0.40201239  0.66273995  0.51929330     0.11900
H1442       H  0.44906179  0.65953838  0.50127723     0.13100
H1443       H  0.01243272  0.68704390  0.49012936     0.12100
H1444       H  0.04521504  0.81805764  0.52633731     0.09200
H1445       H  0.10624737  0.84373012  0.51311188     0.12500
H1446       H  0.07464441  0.73937699  0.48698047     0.14400
C1447       C  0.83553216  0.16985691  0.53473601     0.45600
H1448       H  0.83602700  0.17100218  0.51952400    -0.03400
C1449       C  0.83432809  0.16715185  0.57051334     0.45700
H1450       H  0.83389480  0.16590981  0.58575090    -0.03400
C1451       C  0.87444970  0.19135713  0.54373910    -0.17100
C1452       C  0.81337536  0.18638827  0.54379595    -0.16900
C1453       C  0.81786701  0.12981213  0.54263534    -0.17200
C1454       C  0.87310936  0.18955835  0.56251315    -0.17200
C1455       C  0.81324477  0.18494471  0.56261169    -0.16800
C1456       C  0.81750342  0.12905742  0.56142606    -0.17100
C1457       C  0.66710653  0.33210982  0.46031541     0.45600
H1458       H  0.66614061  0.33122974  0.44510045    -0.03400
C1459       C  0.66898400  0.33441783  0.49594888     0.45700
H1460       H  0.66976692  0.33536036  0.51116513    -0.03400
C1461       C  0.62883701  0.31074010  0.46908329    -0.17100
C1462       C  0.68931022  0.31567746  0.46852851    -0.16900
C1463       C  0.68468624  0.37155793  0.46795639    -0.17200
C1464       C  0.62929498  0.31165201  0.48791600    -0.17200
C1465       C  0.69049913  0.31668639  0.48739291    -0.16800
C1466       C  0.68586724  0.37336434  0.48676855    -0.17100
O1467       O  0.63883844  0.35864581  0.71857504    -0.78400
C1468       C  0.62704572  0.25068716  0.71215514     0.82700
O1469       O  0.75591702  0.37724536  0.69435733    -0.79500
O1470       O  0.67411490  0.27226718  0.65663622    -0.81000
O1471       O  0.59376618  0.32467182  0.65854829    -0.80700
O1472       O  0.62482503  0.38249034  0.69466355    -0.79400
Zn1473     Zn  0.66663221  0.33512017  0.70859489     1.55700
O1474       O  0.59537981  0.27187350  0.65796437    -0.80800
Cd1475     Cd  0.64038089  0.36069909  0.67327615     1.59700
Cd1476     Cd  0.71851436  0.36052860  0.67280957     1.59600
O1477       O  0.67388847  0.40318159  0.65566375    -0.80800
O1478       O  0.66655569  0.33471476  0.68225495    -1.91300
Cd1479     Cd  0.64042114  0.28217648  0.67347160     1.59900
O1480       O  0.72859772  0.40610788  0.65722880    -0.80700
O1481       O  0.62244247  0.24468449  0.69498265    -0.79400
C1482       C  0.75053581  0.37713984  0.71157127     0.83200
C1483       C  0.62512614  0.37729891  0.71185612     0.82800
O1484       O  0.64368428  0.28353295  0.71870868    -0.78300
C1485       C  0.58072936  0.29108330  0.65331257     0.83600
O1486       O  0.71819277  0.36340791  0.71835490    -0.78400
C1487       C  0.70781178  0.41783426  0.65101879     0.83800
C1488       C  0.70690798  0.29258058  0.65046262     0.84100
O1489       O  0.72724658  0.32653202  0.65526469    -0.80800
C1490       C  0.49839020  0.99858921  0.79343945     0.45600
H1491       H  0.49798286  0.99809507  0.77822248    -0.03400
C1492       C  0.49923028  0.99933870  0.82911401     0.45700
H1493       H  0.49957328  0.99976233  0.84433741    -0.03400
C1494       C  0.95988244  0.47624232  0.80190821    -0.17100
C1495       C  0.52088318  0.48259600  0.80162657    -0.16900
C1496       C  0.51541553  0.03770032  0.80143444    -0.17200
C1497       C  0.95988416  0.47669179  0.82073515    -0.17200
C1498       C  0.52158221  0.48264186  0.82047124    -0.16800
C1499       C  0.51584037  0.03844408  0.82028259    -0.17100
C1500       C  0.66683568  0.33446095  0.86715926     0.45600
H1501       H  0.66751184  0.33559670  0.85194350    -0.03400
C1502       C  0.66518537  0.33139704  0.90285806     0.45700
H1503       H  0.66424363  0.33000574  0.91807900    -0.03400
C1504       C  0.64578450  0.35220610  0.87606075    -0.17100
C1505       C  0.64806696  0.29434007  0.87501736    -0.16900
C1506       C  0.70566275  0.35463617  0.87619846    -0.17200
C1507       C  0.64539039  0.35058538  0.89489014    -0.17200
C1508       C  0.64720142  0.29330653  0.89377728    -0.16800
C1509       C  0.70451655  0.35271317  0.89506887    -0.17100
C1510       C  0.83392384  0.16687557  0.12585451     0.45600
H1511       H  0.83401410  0.16623438  0.11061139    -0.03400
C1512       C  0.83364178  0.16855875  0.16160226     0.45700
H1513       H  0.83347789  0.16915963  0.17681968    -0.03400
C1514       C  0.79536964  0.15072252  0.13401770    -0.17100
C1515       C  0.84996613  0.14486986  0.13464200    -0.16900
C1516       C  0.85618282  0.20600718  0.13384993    -0.17200
C1517       C  0.79460297  0.15142501  0.15279235    -0.17200
C1518       C  0.85033726  0.14566133  0.15346421    -0.16800
C1519       C  0.85624073  0.20757570  0.15263959    -0.17100
C1520       C  0.50077164  0.00287919  0.20056872     0.45600
H1521       H  0.50002424  0.50226628  0.18535097    -0.03400
C1522       C  0.50275065  0.00443999  0.23632928     0.45700
H1523       H  0.50369656  0.00529045  0.25156793    -0.03400
C1524       C  0.98267573  0.02384596  0.20925893    -0.17100
C1525       C  0.98060710  0.46366582  0.20968271    -0.16900
C1526       C  0.54047034  0.02230872  0.20869661    -0.17200
C1527       C  0.98399281  0.02428613  0.22802758    -0.17200
C1528       C  0.98197326  0.46505610  0.22851823    -0.16800
C1529       C  0.54096481  0.02281316  0.22749752    -0.17100
O1530       O  0.80555257  0.18786124  0.38576091    -0.78400
C1531       C  0.79455045  0.08151902  0.37732136     0.82700
O1532       O  0.92475129  0.21128227  0.36223469    -0.79500
O1533       O  0.84234689  0.10605942  0.32219211    -0.81000
O1534       O  0.76714389  0.16228163  0.32254062    -0.80700
O1535       O  0.79175372  0.21240346  0.36204079    -0.79400
Zn1536     Zn  0.83459158  0.16599921  0.37529047     1.55700
O1537       O  0.76348558  0.10685577  0.32296471    -0.80800
Cd1538     Cd  0.81097507  0.19545333  0.33996749     1.59700
Cd1539     Cd  0.88787489  0.19329102  0.34044883     1.59600
O1540       O  0.84786986  0.24191391  0.32489146    -0.80800
O1541       O  0.83521678  0.16749422  0.34885649    -1.91300
Cd1542     Cd  0.80794949  0.11547759  0.33896263     1.59900
O1543       O  0.89933188  0.23834596  0.32396813    -0.80700
O1544       O  0.78899997  0.07685593  0.36009990    -0.79400
C1545       C  0.91839161  0.21028697  0.37936180     0.83200
C1546       C  0.79141083  0.20626544  0.37920820     0.82800
O1547       O  0.81238671  0.11378623  0.38447045    -0.78300
C1548       C  0.75205028  0.12836379  0.31735267     0.83600
O1549       O  0.88560088  0.19497098  0.38571252    -0.78400
C1550       C  0.88095486  0.25392314  0.31932845     0.83800
C1551       C  0.87666247  0.12564765  0.31813410     0.84100
O1552       O  0.89724840  0.15826971  0.32456357    -0.80800
O1553       O  0.52711479  0.05697120  0.97884164    -0.78400
C1554       C  0.54269657  0.46147444  0.98252342     0.82700
O1555       O  0.91215499  0.45382074  0.00073668    -0.79500
O1556       O  0.99346123  0.42941687  0.03764902    -0.81000
O1557       O  0.57182679  0.06207927  0.03955134    -0.80700
O1558       O  0.54378968  0.09275576  0.00381842    -0.79400
Zn1559     Zn  0.50174089  0.00426462  0.98730760     1.55700
O1560       O  0.57221368  0.00867441  0.03791576    -0.80800
Cd1561     Cd  0.52612767  0.05276925  0.02443085     1.59700
Cd1562     Cd  0.94865879  0.47341069  0.02257725     1.59600
O1563       O  0.99092129  0.05896017  0.04228852    -0.80800
O1564       O  0.50098160  0.00146244  0.01374428    -1.91300
Cd1565     Cd  0.52711508  0.47472930  0.02170445     1.59900
O1566       O  0.93669492  0.00624035  0.03918717    -0.80700
O1567       O  0.54380606  0.45588001  0.99960806    -0.79400
C1568       C  0.91783496  0.45967599  0.98357009     0.83200
C1569       C  0.54203878  0.08876914  0.98646208     0.82800
O1570       O  0.52846289  0.48007714  0.97630732    -0.78300
C1571       C  0.58569230  0.04190245  0.04382177     0.83600
O1572       O  0.95033048  0.47898398  0.97695037    -0.78400
C1573       C  0.95666453  0.03838178  0.04630883     0.83800
C1574       C  0.96042788  0.41584840  0.04347505     0.84100
O1575       O  0.94005541  0.42917344  0.03883327    -0.80800
C1576       C  0.57473152  0.03940651  0.23892256    -0.01200
C1577       C  0.59920120  0.07790099  0.23896615    -0.09200
C1578       C  0.62912602  0.09378903  0.25112685    -0.18000
C1579       C  0.63537383  0.07131191  0.26356962     0.04400
C1580       C  0.61128636  0.03199631  0.26268027     0.18600
C1581       C  0.58102602  0.01655931  0.25061771    -0.19400
C1582       C  0.61720010  0.00831236  0.27400946    -0.20700
C1583       C  0.64628163  0.02283329  0.28648769    -0.19200
C1584       C  0.66961685  0.06142389  0.28824970     0.20000
C1585       C  0.66436953  0.08629227  0.27692774     0.02100
C1586       C  0.68784123  0.12501518  0.27978888    -0.14000
C1587       C  0.71552449  0.13840027  0.29316617    -0.11700
C1588       C  0.72114565  0.11380441  0.30398804     0.01600
C1589       C  0.69803082  0.07529560  0.30141386    -0.23900
H1590       H  0.59454625  0.09578918  0.22988197     0.09600
H1591       H  0.64677296  0.12366033  0.25049224     0.13200
H1592       H  0.56206243  0.48665227  0.25036932     0.11900
H1593       H  0.59914401  0.47832723  0.27323893     0.13100
H1594       H  0.65014212  0.00372776  0.29506032     0.12100
H1595       H  0.68523836  0.14570220  0.27206095     0.09200
H1596       H  0.73306514  0.16827278  0.29481734     0.12500
H1597       H  0.70194106  0.05597347  0.30980055     0.14400
C1598       C  0.96655010  0.43244896  0.24094944    -0.01200
C1599       C  0.97853664  0.40661001  0.23996556    -0.09200
C1600       C  0.96614055  0.37758790  0.25271538    -0.18000
C1601       C  0.94109227  0.37356604  0.26683545     0.04400
C1602       C  0.92833426  0.39945750  0.26735946     0.18600
C1603       C  0.94162869  0.42887616  0.25468322    -0.19400
C1604       C  0.90226493  0.39578788  0.28047855    -0.20700
C1605       C  0.88805011  0.36651179  0.29297911    -0.19200
C1606       C  0.90042578  0.34088585  0.29304342     0.20000
C1607       C  0.92784817  0.34457806  0.28028961     0.02100
C1608       C  0.94096051  0.31925623  0.28167343    -0.14000
C1609       C  0.92643889  0.29070451  0.29470919    -0.11700
C1610       C  0.89811870  0.28608335  0.30662340     0.01600
C1611       C  0.88545514  0.31149535  0.30580250    -0.23900
H1612       H  0.49815542  0.40934194  0.22949783     0.09600
H1613       H  0.97637748  0.35862342  0.25106581     0.13200
H1614       H  0.93241080  0.44900926  0.25538842     0.11900
H1615       H  0.89238592  0.41538644  0.28089934     0.13100
H1616       H  0.86740203  0.36405857  0.30276278     0.12100
H1617       H  0.96256856  0.32091991  0.27297240     0.09200
H1618       H  0.93684281  0.27153816  0.29513794     0.12500
H1619       H  0.86396110  0.30848013  0.31517731     0.14400
C1620       C  0.89317560  0.11084220  0.30519489    -0.01200
C1621       C  0.93176123  0.12867811  0.30329110    -0.09200
C1622       C  0.94782568  0.11641692  0.29044275    -0.18000
C1623       C  0.92566631  0.08579084  0.27890380     0.04400
C1624       C  0.88647603  0.06783689  0.28082826     0.18600
C1625       C  0.87067660  0.08025148  0.29398537    -0.19400
C1626       C  0.86327035  0.03776423  0.26953590    -0.20700
C1627       C  0.87815161  0.02487564  0.25640169    -0.19200
C1628       C  0.91658046  0.04152294  0.25438653     0.20000
C1629       C  0.94096816  0.07225435  0.26560531     0.02100
C1630       C  0.97962213  0.08759891  0.26325573    -0.14000
C1631       C  0.99330491  0.07231333  0.25071386    -0.11700
C1632       C  0.96908325  0.04209619  0.23989686     0.01600
C1633       C  0.93085576  0.02703771  0.24150933    -0.23900
H1634       H  0.94978836  0.15245953  0.31174815     0.09600
H1635       H  0.97765946  0.13180137  0.28981975     0.13200
H1636       H  0.84074959  0.06653062  0.29521418     0.11900
H1637       H  0.83338096  0.52408783  0.27088077     0.13100
H1638       H  0.85947767  0.50143465  0.24790691     0.12100
H1639       H  0.00004026  0.11079893  0.27114860     0.09200
H1640       H  0.52300206  0.08389860  0.24954219     0.12500
H1641       H  0.91229863  0.50319386  0.23318075     0.14400
C1642       C  0.87452432  0.23849240  0.12165035    -0.01200
C1643       C  0.90077835  0.24084488  0.10910122    -0.09200
C1644       C  0.91670372  0.27003249  0.09654286    -0.18000
C1645       C  0.90603598  0.29736243  0.09600043     0.04400
C1646       C  0.87896920  0.29442451  0.10879727     0.18600
C1647       C  0.86386649  0.26536568  0.12163418    -0.19400
C1648       C  0.86635208  0.31982485  0.10835611    -0.20700
C1649       C  0.87930343  0.34761331  0.09510263    -0.19200
C1650       C  0.90586284  0.35119544  0.08231612     0.20000
C1651       C  0.92039514  0.32678815  0.08287951     0.02100
C1652       C  0.94864220  0.33291975  0.07026976    -0.14000
C1653       C  0.96125394  0.36155202  0.05739403    -0.11700
C1654       C  0.94589866  0.38462853  0.05653150     0.01600
C1655       C  0.91821611  0.37931033  0.06901818    -0.23900
H1656       H  0.90879196  0.21977042  0.10896060     0.09600
H1657       H  0.93640387  0.26973142  0.08713339     0.13200
H1658       H  0.84284308  0.26280755  0.13121083     0.11900
H1659       H  0.84574844  0.31768867  0.11807509     0.13100
H1660       H  0.86849640  0.36646875  0.09486232     0.12100
H1661       H  0.96199526  0.31651501  0.07016086     0.09200
H1662       H  0.98311375  0.36560177  0.04802986     0.12500
H1663       H  0.90692252  0.39776747  0.06870434     0.14400
C1664       C  0.61752183  0.05706291  0.05653604    -0.01200
C1665       C  0.62526328  0.03294980  0.06650306    -0.09200
C1666       C  0.65337598  0.04681717  0.07963084    -0.18000
C1667       C  0.67506492  0.08553395  0.08305003     0.04400
C1668       C  0.66825308  0.10996715  0.07224802     0.18600
C1669       C  0.63931947  0.09557908  0.05940765    -0.19400
C1670       C  0.69044965  0.14863528  0.07425948    -0.20700
C1671       C  0.71968672  0.16367450  0.08664269    -0.19200
C1672       C  0.72649930  0.14038905  0.09779999     0.20000
C1673       C  0.70364880  0.10094752  0.09655489     0.02100
C1674       C  0.71025426  0.07875833  0.10899752    -0.14000
C1675       C  0.73926471  0.09511663  0.12161337    -0.11700
C1676       C  0.76251454  0.13377927  0.12206239     0.01600
C1677       C  0.75611866  0.15632383  0.11021702    -0.23900
H1678       H  0.60892587  0.00306720  0.06446368     0.09600
H1679       H  0.65773985  0.02657429  0.08672352     0.13200
H1680       H  0.63388114  0.11448533  0.05154873     0.11900
H1681       H  0.68551790  0.16739777  0.06599194     0.13100
H1682       H  0.73683512  0.19374170  0.08765128     0.12100
H1683       H  0.69332235  0.04878334  0.10941844     0.09200
H1684       H  0.74415313  0.07751753  0.13078962     0.12500
H1685       H  0.77427665  0.18635995  0.11074665     0.14400
C1686       C  0.86418613  0.12562619  0.12308219    -0.01200
C1687       C  0.84025532  0.09796580  0.11090350    -0.09200
C1688       C  0.85356042  0.08130275  0.09888336    -0.18000
C1689       C  0.89168772  0.09263081  0.09841434     0.04400
C1690       C  0.91586898  0.12115850  0.11074380     0.18600
C1691       C  0.90186002  0.13689908  0.12311570    -0.19400
C1692       C  0.95404181  0.13463264  0.11026121    -0.20700
C1693       C  0.96896559  0.12116644  0.09743277    -0.19200
C1694       C  0.94598316  0.09315315  0.08510293     0.20000
C1695       C  0.90689478  0.07766048  0.08576043     0.02100
C1696       C  0.88484206  0.04799671  0.07366568    -0.14000
C1697       C  0.90104590  0.03528081  0.06102404    -0.11700
C1698       C  0.93967646  0.05184624  0.05984656     0.01600
C1699       C  0.96193459  0.08057352  0.07207737    -0.23900
H1700       H  0.81108960  0.08941401  0.11061604     0.09600
H1701       H  0.83353070  0.06051381  0.08975298     0.13200
H1702       H  0.92044584  0.15896639  0.13231892     0.11900
H1703       H  0.97260092  0.15637854  0.11959345     0.13100
H1704       H  0.49875126  0.13279200  0.09714478     0.12100
H1705       H  0.85497838  0.03380721  0.07374277     0.09200
H1706       H  0.88316672  0.01258088  0.05196812     0.12500
H1707       H  0.99182546  0.09294611  0.07161526     0.14400
C1708       C  0.96677855  0.04334419  0.19889666    -0.01200
C1709       C  0.98113489  0.08159976  0.20160207    -0.09200
C1710       C  0.96254171  0.09930408  0.19500457    -0.18000
C1711       C  0.92862290  0.07911327  0.18543633     0.04400
C1712       C  0.91521277  0.04064423  0.18188869     0.18600
C1713       C  0.93433122  0.02318204  0.18861704    -0.19400
C1714       C  0.88238753  0.01966239  0.17196644    -0.20700
C1715       C  0.86263950  0.03599805  0.16539672    -0.19200
C1716       C  0.87478454  0.07358507  0.16886444     0.20000
C1717       C  0.90762511  0.09563880  0.17919095     0.02100
C1718       C  0.91783985  0.13318029  0.18279345    -0.14000
C1719       C  0.89753371  0.14862922  0.17550388    -0.11700
C1720       C  0.86657754  0.12727831  0.16445470     0.01600
C1721       C  0.85468221  0.08948338  0.16167801    -0.23900
H1722       H  0.50634006  0.09763768  0.20946947     0.09600
H1723       H  0.97519419  0.12870846  0.19779153     0.13200
H1724       H  0.92306722  0.49351771  0.18660040     0.11900
H1725       H  0.87198790  0.49040370  0.16918026     0.13100
H1726       H  0.83758670  0.01904509  0.15755440     0.12100
H1727       H  0.94170406  0.15146430  0.19095502     0.09200
H1728       H  0.90714301  0.17790262  0.17774240     0.12500
H1729       H  0.83046869  0.07281141  0.15321934     0.14400
C1730       C  0.75930908  0.13566784  0.16318321    -0.01200
C1731       C  0.74937327  0.10596664  0.17521124    -0.09200
C1732       C  0.71347954  0.08614883  0.18240854    -0.18000
C1733       C  0.68633101  0.09564947  0.17775611     0.04400
C1734       C  0.69739351  0.12745830  0.16646807     0.18600
C1735       C  0.73355895  0.14698845  0.15925156    -0.19400
C1736       C  0.67211722  0.13913951  0.16222272    -0.20700
C1737       C  0.63600945  0.11995068  0.16904199    -0.19200
C1738       C  0.62393029  0.08795635  0.17984502     0.20000
C1739       C  0.64876241  0.07492050  0.18400512     0.02100
C1740       C  0.63483052  0.04148841  0.19414651    -0.14000
C1741       C  0.59867185  0.02319932  0.20088564    -0.11700
C1742       C  0.57514245  0.03745120  0.19784220     0.01600
C1743       C  0.58742811  0.06924393  0.18685930    -0.23900
H1744       H  0.76896302  0.09694227  0.17838766     0.09600
H1745       H  0.70778960  0.06338385  0.19147260     0.13200
H1746       H  0.74144954  0.17039718  0.15008301     0.11900
H1747       H  0.68041635  0.16345828  0.15366786     0.13100
H1748       H  0.61732634  0.13005176  0.16573357     0.12100
H1749       H  0.65125023  0.02886946  0.19723306     0.09200
H1750       H  0.58940598  0.99844467  0.20923414     0.12500
H1751       H  0.56920795  0.08034479  0.18451896     0.14400
C1752       C  0.96181218  0.42787403  0.19935819    -0.01200
C1753       C  0.98176967  0.41917422  0.18694213    -0.09200
C1754       C  0.96592445  0.38343396  0.17926408    -0.18000
C1755       C  0.92925953  0.35520597  0.18373835     0.04400
C1756       C  0.90846967  0.36500627  0.19554495     0.18600
C1757       C  0.92487876  0.40092751  0.20326609    -0.19400
C1758       C  0.87158513  0.33872949  0.19979669    -0.20700
C1759       C  0.85482874  0.30275574  0.19264625    -0.19200
C1760       C  0.87473078  0.29176796  0.18137878     0.20000
C1761       C  0.91241480  0.31773038  0.17693296     0.02100
C1762       C  0.93163794  0.30486504  0.16602685    -0.14000
C1763       C  0.91380018  0.26845935  0.15919425    -0.11700
C1764       C  0.87622753  0.24356302  0.16284330     0.01600
C1765       C  0.85703986  0.25510432  0.17431338    -0.23900
H1766       H  0.01028664  0.43967611  0.18373319     0.09600
H1767       H  0.98314211  0.37866714  0.16996979     0.13200
H1768       H  0.90916300  0.40777784  0.21270711     0.11900
H1769       H  0.85551594  0.34608738  0.20870187     0.17300
H1770       H  0.82614117  0.28325489  0.19610130     0.12100
H1771       H  0.96046586  0.32232621  0.16246952     0.09200
H1772       H  0.92921522  0.25995033  0.15049053     0.12500
H1773       H  0.82791702  0.23600079  0.17712584     0.14400
C1774       C  0.73701021  0.36742558  0.90755332    -0.01200
C1775       C  0.73650437  0.34530423  0.92217677    -0.09200
C1776       C  0.76519735  0.35909831  0.93494452    -0.18000
C1777       C  0.79590895  0.39560334  0.93330990     0.04400
C1778       C  0.79708250  0.41740893  0.91802897     0.18600
C1779       C  0.76709208  0.40378410  0.90584817    -0.19400
C1780       C  0.82816005  0.45266955  0.91501512    -0.20700
C1781       C  0.85831805  0.46668063  0.92684643    -0.19200
C1782       C  0.85725286  0.44655536  0.94246833     0.20000
C1783       C  0.82556752  0.41117166  0.94620333     0.02100
C1784       C  0.82455738  0.39332882  0.96289495    -0.14000
C1785       C  0.85423894  0.40954005  0.97511388    -0.11700
C1786       C  0.88605472  0.44348980  0.97092763     0.01600
C1787       C  0.88746898  0.46186292  0.95456677    -0.23900
H1788       H  0.71357774  0.31714001  0.92388200     0.09600
H1789       H  0.76291647  0.34024699  0.94570895     0.13200
H1790       H  0.76688255  0.42210639  0.89541628     0.11900
H1791       H  0.82941706  0.46923501  0.90324024     0.13100
H1792       H  0.88228411  0.49378292  0.92398380     0.12100
H1793       H  0.80088914  0.36726014  0.96709024     0.09200
H1794       H  0.85255518  0.39510535  0.98777401     0.12500
H1795       H  0.91181341  0.48858044  0.95146508     0.14400
C1796       C  0.63051073  0.25930583  0.90507296    -0.01200
C1797       C  0.65293819  0.24617564  0.91193097    -0.09200
C1798       C  0.63951926  0.21826729  0.92521069    -0.18000
C1799       C  0.60315461  0.20311961  0.93225486     0.04400
C1800       C  0.57993831  0.21547149  0.92452423     0.18600
C1801       C  0.59385836  0.24351202  0.91106479    -0.19400
C1802       C  0.54332814  0.20040371  0.93058251    -0.20700
C1803       C  0.52921971  0.17328692  0.94423128    -0.19200
C1804       C  0.55162421  0.16119259  0.95240532     0.20000
C1805       C  0.58912147  0.17634970  0.94672664     0.02100
C1806       C  0.61104315  0.16427594  0.95591023    -0.14000
C1807       C  0.59589330  0.13715845  0.96957224    -0.11700
C1808       C  0.55873970  0.12147207  0.97452944     0.01600
C1809       C  0.53669579  0.13364515  0.96609752    -0.23900
H1810       H  0.68138348  0.25831965  0.90732581     0.09600
H1811       H  0.65845601  0.20957060  0.92981505     0.13200
H1812       H  0.57670053  0.25406696  0.90571531     0.11900
H1813       H  0.52548926  0.20962610  0.92471289     0.13100
H1814       H  0.00066575  0.16192318  0.94853747     0.12100
H1815       H  0.63989329  0.17503273  0.95282560     0.09200
H1816       H  0.61299271  0.12750968  0.97592214     0.12500
H1817       H  0.50771178  0.12100597  0.96992023     0.14400
C1818       C  0.62971863  0.36751131  0.90711352    -0.01200
C1819       C  0.63933254  0.40473127  0.90481411    -0.09200
C1820       C  0.62556294  0.42112217  0.91664982    -0.18000
C1821       C  0.60211613  0.40077492  0.93144745     0.04400
C1822       C  0.59347784  0.36329010  0.93404332     0.18600
C1823       C  0.60704797  0.34699476  0.92181378    -0.19400
C1824       C  0.57172870  0.34246282  0.94893577    -0.20700
C1825       C  0.55869660  0.35826161  0.96150696    -0.19200
C1826       C  0.56632502  0.39492654  0.95921204     0.20000
C1827       C  0.58748084  0.41646369  0.94392440     0.02100
C1828       C  0.59266889  0.45261722  0.94167613    -0.14000
C1829       C  0.57788858  0.46688914  0.95420250    -0.11700
C1830       C  0.55820932  0.44603112  0.96950688     0.01600
C1831       C  0.55259577  0.41014060  0.97202092    -0.23900
H1832       H  0.65804634  0.42142165  0.89393425     0.09600
H1833       H  0.63452241  0.45000176  0.91408442     0.13200
H1834       H  0.60010288  0.31828827  0.92376665     0.11900
H1835       H  0.56514555  0.31391204  0.95099922     0.13100
H1836       H  0.54228255  0.34158592  0.97302850     0.12100
H1837       H  0.60740175  0.47033975  0.93021649     0.09200
H1838       H  0.58221295  0.49461938  0.95202512     0.12500
H1839       H  0.53667804  0.39370223  0.98372229     0.14400
C1840       C  0.62737246  0.36919217  0.86561456    -0.01200
C1841       C  0.64785573  0.39927686  0.85380007    -0.09200
C1842       C  0.63238644  0.41975855  0.84665906    -0.18000
C1843       C  0.59569997  0.41059831  0.85117323     0.04400
C1844       C  0.57456276  0.37880683  0.86246240     0.18600
C1845       C  0.59038592  0.35842879  0.86940291    -0.19400
C1846       C  0.53795259  0.36791554  0.86709683    -0.20700
C1847       C  0.52159701  0.38774777  0.86067093    -0.19200
C1848       C  0.54154188  0.41929500  0.84961172     0.20000
C1849       C  0.57908490  0.43154846  0.84489047     0.02100
C1850       C  0.59818611  0.46415804  0.83406491    -0.14000
C1851       C  0.58012393  0.48235614  0.82735833    -0.11700
C1852       C  0.54252795  0.46873033  0.83112280     0.01600
C1853       C  0.52376107  0.43801983  0.84280130    -0.23900
H1854       H  0.67649456  0.40803572  0.85076176     0.09600
H1855       H  0.64998989  0.44292510  0.83787173     0.13200
H1856       H  0.57434087  0.33488294  0.87844306     0.11900
H1857       H  0.52175827  0.34374564  0.87573356     0.13100
H1858       H  0.99305974  0.37827056  0.86435655     0.12100
H1859       H  0.62687676  0.47587151  0.83026413     0.09200
H1860       H  0.59514245  0.00628618  0.81843365     0.12500
H1861       H  0.99464241  0.42737001  0.84569302     0.14400
C1862       C  0.53107226  0.07366363  0.83079483    -0.01200
C1863       C  0.51678978  0.09728497  0.82785085    -0.09200
C1864       C  0.53565045  0.13404995  0.83411777    -0.18000
C1865       C  0.56985642  0.14854474  0.84344960     0.04400
C1866       C  0.58331532  0.12378465  0.84714016     0.18600
C1867       C  0.56363342  0.08656846  0.84099949    -0.19400
C1868       C  0.61685141  0.13661412  0.85648400    -0.20700
C1869       C  0.63717087  0.17338662  0.86244613    -0.19200
C1870       C  0.62461960  0.19836173  0.85910964     0.20000
C1871       C  0.59108770  0.18656749  0.84931360     0.02100
C1872       C  0.58025295  0.21336187  0.84598112    -0.14000
C1873       C  0.60039034  0.24939446  0.85326107    -0.11700
C1874       C  0.63197095  0.25986491  0.86385001     0.01600
C1875       C  0.64482437  0.23481027  0.86605495    -0.23900
H1876       H  0.99165418  0.08763323  0.81991240     0.09600
H1877       H  0.52311042  0.15061623  0.83109976     0.13200
H1878       H  0.57490546  0.06835966  0.84307354     0.11900
H1879       H  0.62739036  0.11802604  0.85926118     0.13100
H1880       H  0.66278201  0.18229166  0.86986441     0.12100
H1881       H  0.55582959  0.20706184  0.83821712     0.09200
H1882       H  0.59020989  0.26854144  0.85139911     0.12500
H1883       H  0.66980971  0.24327299  0.87395529     0.14400
C1884       C  0.92522176  0.45917576  0.83166931    -0.01200
C1885       C  0.91202914  0.48144251  0.83891695    -0.09200
C1886       C  0.87570593  0.46529421  0.84556305    -0.18000
C1887       C  0.85188015  0.42611739  0.84563804     0.04400
C1888       C  0.86676719  0.40364427  0.83990283     0.18600
C1889       C  0.90278638  0.42028911  0.83250052    -0.19400
C1890       C  0.84545010  0.36475580  0.84145833    -0.20700
C1891       C  0.80989698  0.34775603  0.84892845    -0.19200
C1892       C  0.79389150  0.36903815  0.85393067     0.20000
C1893       C  0.81407436  0.40840669  0.85152237     0.02100
C1894       C  0.79522010  0.42816420  0.85467499    -0.14000
C1895       C  0.75868912  0.40983591  0.86115122    -0.11700
C1896       C  0.74070852  0.37189585  0.86557763     0.01600
C1897       C  0.75791589  0.35133784  0.86144514    -0.23900
H1898       H  0.92915620  0.01155925  0.83838374     0.09600
H1899       H  0.86699142  0.48401973  0.85067642     0.13200
H1900       H  0.91319631  0.40306108  0.82702706     0.11900
H1901       H  0.85666871  0.34741981  0.83725019     0.13100
H1902       H  0.79453365  0.31768512  0.85046815     0.12100
H1903       H  0.80795188  0.45768291  0.85203929     0.09200
H1904       H  0.74525945  0.42583885  0.86387714     0.12500
H1905       H  0.74348096  0.32167623  0.86439162     0.14400
C1906       C  0.92687337  0.45736538  0.78986731    -0.01200
C1907       C  0.92760699  0.43668600  0.77491624    -0.09200
C1908       C  0.89945313  0.42279933  0.76184502    -0.18000
C1909       C  0.86933557  0.42907294  0.76340604     0.04400
C1910       C  0.86778154  0.44844051  0.77913336     0.18600
C1911       C  0.89680144  0.46304448  0.79192789    -0.19400
C1912       C  0.83756244  0.45363943  0.78185094    -0.20700
C1913       C  0.80873676  0.43999985  0.76924186    -0.19200
C1914       C  0.81008868  0.42197754  0.75331788     0.20000
C1915       C  0.84076080  0.41690026  0.74995777     0.02100
C1916       C  0.84181046  0.40056067  0.73311923    -0.14000
C1917       C  0.81308361  0.38885948  0.72041491    -0.11700
C1918       C  0.78225556  0.39244761  0.72422368     0.01600
C1919       C  0.78095703  0.40913024  0.74065607    -0.23900
H1920       H  0.95056388  0.43180637  0.77315180     0.09600
H1921       H  0.90199212  0.40715256  0.75073509     0.13200
H1922       H  0.89655184  0.98005945  0.80306682     0.11900
H1923       H  0.83607392  0.96809969  0.79388887     0.13100
H1924       H  0.78549977  0.44410425  0.77181880     0.12100
H1925       H  0.86463937  0.39685263  0.72925971     0.09200
H1926       H  0.81451822  0.37602643  0.70776151     0.12500
H1927       H  0.75728154  0.41240670  0.74351548     0.14400
C1928       C  0.61265077  0.21908690  0.72498141    -0.01200
C1929       C  0.63030407  0.22331542  0.74183819    -0.09200
C1930       C  0.61606399  0.19444292  0.75460686    -0.18000
C1931       C  0.58306400  0.16047630  0.75101375     0.04400
C1932       C  0.56488881  0.15660484  0.73397654     0.18600
C1933       C  0.58028458  0.18546461  0.72097474    -0.19400
C1934       C  0.53096298  0.12440778  0.73024603    -0.20700
C1935       C  0.51420987  0.09628199  0.74328063    -0.19200
C1936       C  0.53172469  0.09905497  0.76003476     0.20000
C1937       C  0.56695869  0.13064070  0.76391049     0.02100
C1938       C  0.58481433  0.13065252  0.78037101    -0.14000
C1939       C  0.56803971  0.10079379  0.79256128    -0.11700
C1940       C  0.53242542  0.07071938  0.78915347     0.01600
C1941       C  0.51447557  0.07006438  0.77283548    -0.23900
H1942       H  0.65529372  0.24922854  0.74520244     0.09600
H1943       H  0.63086863  0.20005764  0.76739121     0.13200
H1944       H  0.56620975  0.18238286  0.70803999     0.11900
H1945       H  0.51688525  0.12133446  0.71732711     0.13100
H1946       H  0.98756889  0.07198658  0.74015130     0.12100
H1947       H  0.61236728  0.15260551  0.78387778     0.09200
H1948       H  0.58355623  0.10086882  0.80443112     0.12500
H1949       H  0.98716606  0.04651144  0.76992686     0.14400
C1950       C  0.60961596  0.39342026  0.72450141    -0.01200
C1951       C  0.61115709  0.42701671  0.72031454    -0.09200
C1952       C  0.59840864  0.44334118  0.73284258    -0.18000
C1953       C  0.58313047  0.42603014  0.74988633     0.04400
C1954       C  0.58040603  0.39117581  0.75368683     0.18600
C1955       C  0.59411719  0.37559156  0.74116212    -0.19400
C1956       C  0.56385628  0.37193867  0.76991589    -0.20700
C1957       C  0.54931792  0.38632788  0.78241144    -0.19200
C1958       C  0.55196201  0.42076108  0.77919964     0.20000
C1959       C  0.56982249  0.44162703  0.76313569     0.02100
C1960       C  0.57361236  0.47719458  0.76107238    -0.14000
C1961       C  0.55895621  0.49070484  0.77404401    -0.11700
C1962       C  0.53979135  0.46920548  0.78932778     0.01600
C1963       C  0.53644883  0.43429734  0.79187601    -0.23900
H1964       H  0.62300690  0.44113816  0.70746152     0.09600
H1965       H  0.60046669  0.46921322  0.72867678     0.13200
H1966       H  0.59236927  0.34922055  0.74430409     0.11900
H1967       H  0.56164956  0.34530586  0.77283419     0.13100
H1968       H  0.53609020  0.37051000  0.79472484     0.12100
H1969       H  0.58797556  0.49537676  0.74968431     0.09200
H1970       H  0.56226891  0.51806925  0.77200054     0.12500
H1971       H  0.52106208  0.41726566  0.80352493     0.14400
C1972       C  0.70715731  0.30076097  0.45622340    -0.01200
C1973       C  0.72510305  0.32082964  0.44038043    -0.09200
C1974       C  0.73906986  0.30637239  0.42752718    -0.18000
C1975       C  0.73619558  0.27137835  0.43030118     0.04400
C1976       C  0.72041681  0.25226967  0.44700953     0.18600
C1977       C  0.70481258  0.26632714  0.45945020    -0.19400
C1978       C  0.72035537  0.21931699  0.45114129    -0.20700
C1979       C  0.73560354  0.20494608  0.43895148    -0.19200
C1980       C  0.74942983  0.22209377  0.42194218     0.20000
C1981       C  0.74888806  0.25497230  0.41717432     0.02100
C1982       C  0.76012422  0.26949625  0.39928899    -0.14000
C1983       C  0.77279799  0.25291279  0.38690271    -0.11700
C1984       C  0.77527038  0.22177096  0.39198583     0.01600
C1985       C  0.76341304  0.20638318  0.40953633    -0.23900
H1986       H  0.72815495  0.34793908  0.43781358     0.09600
H1987       H  0.75270510  0.32360622  0.41575144     0.13200
H1988       H  0.69059140  0.25026438  0.47152607     0.11900
H1989       H  0.70897256  0.20490813  0.46399124     0.13100
H1990       H  0.73575205  0.17974726  0.44266240     0.12100
H1991       H  0.75867051  0.29317600  0.39433301     0.09200
H1992       H  0.78146988  0.26507052  0.37338112     0.12500
H1993       H  0.76458232  0.18180743  0.41346089     0.14400
C1994       C  0.94940683  0.22664320  0.39241808    -0.01200
C1995       C  0.94666417  0.24374867  0.40836118    -0.09200
C1996       C  0.97466706  0.25731605  0.42149933    -0.18000
C1997       C  0.50615049  0.25343832  0.41923110     0.04400
C1998       C  0.50837345  0.23532806  0.40313751     0.18600
C1999       C  0.98051375  0.22291208  0.38973763    -0.19400
C2000       C  0.53801475  0.22910934  0.40067354    -0.20700
C2001       C  0.56567852  0.24062033  0.41383763    -0.19200
C2002       C  0.56487992  0.25955177  0.42952118     0.20000
C2003       C  0.53531947  0.26658638  0.43239474     0.02100
C2004       C  0.53676661  0.28729732  0.44807914    -0.14000
C2005       C  0.56664956  0.30095497  0.46015958    -0.11700
C2006       C  0.59532460  0.29342363  0.45735971     0.01600
C2007       C  0.59408471  0.27240271  0.44212804    -0.23900
H2008       H  0.92259580  0.24659354  0.41069689     0.09600
H2009       H  0.97037519  0.26986384  0.43344574     0.13200
H2010       H  0.98228555  0.20897871  0.37754272     0.11900
H2011       H  0.53967485  0.21498798  0.38853860     0.13100
H2012       H  0.58822044  0.23529152  0.41157242     0.12100
H2013       H  0.51601165  0.29462499  0.45105188     0.09200
H2014       H  0.56779571  0.31836348  0.47146160     0.12500
H2015       H  0.61650744  0.26686590  0.43984413     0.14400
C2016       C  0.69989525  0.40367011  0.45525007    -0.01200
C2017       C  0.67835625  0.40277698  0.44039954    -0.09200
C2018       C  0.69296481  0.43071790  0.42715837    -0.18000
C2019       C  0.72985734  0.46068636  0.42843073     0.04400
C2020       C  0.75114092  0.46222240  0.44397923     0.18600
C2021       C  0.73630175  0.43340775  0.45699674    -0.19400
C2022       C  0.78707536  0.49243076  0.44639096    -0.20700
C2023       C  0.80223464  0.02147497  0.43375847    -0.19200
C2024       C  0.78226937  0.02030420  0.41811429     0.20000
C2025       C  0.74619721  0.48938460  0.41495436     0.02100
C2026       C  0.72821622  0.98835496  0.39833914    -0.14000
C2027       C  0.74471342  0.01765669  0.38580455    -0.11700
C2028       C  0.77920957  0.04896850  0.38955297     0.01600
C2029       C  0.79808787  0.04999496  0.40560556    -0.23900
H2030       H  0.65001391  0.38007395  0.43896275     0.09600
H2031       H  0.67451868  0.42826634  0.41622921     0.13200
H2032       H  0.75327255  0.43383121  0.46834356     0.11900
H2033       H  0.80335187  0.49386813  0.45826607     0.13100
H2034       H  0.82987978  0.04484397  0.43615042     0.12100
H2035       H  0.70154364  0.46521579  0.39455364     0.09200
H2036       H  0.72986513  0.01636259  0.37339374     0.12500
H2037       H  0.82518375  0.07401817  0.40835057     0.14400
C2038       C  0.72143612  0.27612149  0.63726724    -0.01200
C2039       C  0.70581948  0.23737971  0.63648198    -0.09200
C2040       C  0.71918574  0.22126840  0.62421009    -0.18000
C2041       C  0.74860724  0.24350149  0.61208238     0.04400
C2042       C  0.76333674  0.28274187  0.61235444     0.18600
C2043       C  0.75008901  0.29868379  0.62506851    -0.19400
C2044       C  0.79109793  0.30575182  0.59991254    -0.20700
C2045       C  0.80481194  0.29064881  0.58728275    -0.19200
C2046       C  0.79179457  0.25229143  0.58711076     0.20000
C2047       C  0.76380969  0.22818918  0.59967138     0.02100
C2048       C  0.75293126  0.18992799  0.59957275    -0.14000
C2049       C  0.76898522  0.17624292  0.58744768    -0.11700
C2050       C  0.79570594  0.19992309  0.57485195     0.01600
C2051       C  0.80708279  0.23790376  0.57468551    -0.23900
H2052       H  0.68331057  0.21932153  0.64557658     0.09600
H2053       H  0.70554580  0.19126596  0.62442267     0.13200
H2054       H  0.76173312  0.32867526  0.62527892     0.11900
H2055       H  0.80220085  0.33564596  0.59990518     0.13100
H2056       H  0.82620073  0.30917696  0.57778843     0.12100
H2057       H  0.73275350  0.16998945  0.60897373     0.09200
H2058       H  0.76042931  0.14689475  0.58785851     0.12500
H2059       H  0.82852090  0.25633817  0.56516909     0.14400
C2060       C  0.54866935  0.27427344  0.64081582    -0.01200
C2061       C  0.54017882  0.24182642  0.63113836    -0.09200
C2062       C  0.51222831  0.22744098  0.61800881    -0.18000
C2063       C  0.99156519  0.24503778  0.61420904     0.04400
C2064       C  0.99893771  0.27681111  0.62476287     0.18600
C2065       C  0.52762407  0.29139751  0.63772769    -0.19400
C2066       C  0.97765273  0.29382458  0.62230958    -0.20700
C2067       C  0.94882657  0.27965167  0.60968756    -0.19200
C2068       C  0.94154951  0.24901362  0.59878335     0.20000
C2069       C  0.96349011  0.23188167  0.60051333     0.02100
C2070       C  0.95657753  0.20255454  0.58833417    -0.14000
C2071       C  0.92797897  0.18976896  0.57554828    -0.11700
C2072       C  0.90556397  0.20566530  0.57463271     0.01600
C2073       C  0.91235405  0.23524752  0.58614842    -0.23900
H2074       H  0.55581456  0.22785209  0.63338231     0.09600
H2075       H  0.50727729  0.20234242  0.61120238     0.13200
H2076       H  0.53362909  0.31619166  0.64537570     0.11900
H2077       H  0.98300942  0.31792927  0.63037751     0.13100
H2078       H  0.93236743  0.29298901  0.60830204     0.12100
H2079       H  0.97291683  0.18915158  0.58823210     0.09200
H2080       H  0.92275520  0.16681995  0.56659779     0.12500
H2081       H  0.89480416  0.24748633  0.58521619     0.14400
C2082       C  0.80083837  0.09492475  0.57257851    -0.01200
C2083       C  0.76255228  0.07073406  0.57232162    -0.09200
C2084       C  0.74614242  0.04040967  0.58425620    -0.18000
C2085       C  0.76789961  0.03363010  0.59681163     0.04400
C2086       C  0.80711331  0.05710208  0.59604301     0.18600
C2087       C  0.82312492  0.08784641  0.58418316    -0.19400
C2088       C  0.82999590  0.05012879  0.60733021    -0.20700
C2089       C  0.81471417  0.02076352  0.61975776    -0.19200
C2090       C  0.77620503  0.99847758  0.62155891     0.20000
C2091       C  0.75220627  0.00474870  0.61022218     0.02100
C2092       C  0.71357291  0.48265176  0.61321290    -0.14000
C2093       C  0.69943343  0.45516950  0.62672699    -0.11700
C2094       C  0.72317675  0.44849640  0.63753783     0.01600
C2095       C  0.76155433  0.47024115  0.63485399    -0.23900
H2096       H  0.74522566  0.07596379  0.56318584     0.09600
H2097       H  0.71645735  0.02291636  0.58335177     0.13200
H2098       H  0.85294097  0.10657952  0.58405664     0.11900
H2099       H  0.85991726  0.06761228  0.60659819     0.13100
H2100       H  0.83312185  0.01603947  0.62833848     0.12100
H2101       H  0.69358019  0.48632089  0.60558487     0.09200
H2102       H  0.66964038  0.43868633  0.62851387     0.12500
H2103       H  0.78015102  0.46546592  0.64326685     0.14400
C2104       C  0.70981720  0.30146555  0.49834615    -0.01200
C2105       C  0.68978632  0.27256114  0.51081018    -0.09200
C2106       C  0.70532395  0.25252492  0.51830515    -0.18000
C2107       C  0.74158805  0.26089888  0.51345374     0.04400
C2108       C  0.76257991  0.29194565  0.50171102     0.18600
C2109       C  0.74671093  0.31203106  0.49444727    -0.19400
C2110       C  0.79895899  0.30220218  0.49691369    -0.20700
C2111       C  0.81518366  0.28243603  0.50362284    -0.19200
C2112       C  0.79519549  0.25142626  0.51500809     0.20000
C2113       C  0.75785066  0.23978212  0.51983472     0.02100
C2114       C  0.73840441  0.20737328  0.53074248    -0.14000
C2115       C  0.75598282  0.18878850  0.53744206    -0.11700
C2116       C  0.79340289  0.20180871  0.53359300     0.01600
C2117       C  0.81258146  0.23240964  0.52190883    -0.23900
H2118       H  0.66130028  0.26417208  0.51402592     0.09600
H2119       H  0.68804879  0.23027612  0.52761850     0.13200
H2120       H  0.76242659  0.33479559  0.48494535     0.11900
H2121       H  0.81506233  0.32580864  0.48793568     0.13100
H2122       H  0.84354955  0.29139707  0.49982115     0.12100
H2123       H  0.70971224  0.19588297  0.53447347     0.09200
H2124       H  0.74059368  0.16474265  0.54625838     0.12500
H2125       H  0.84154401  0.24245649  0.51890608     0.14400
C2126       C  0.70264279  0.40933709  0.49698606    -0.01200
C2127       C  0.73193068  0.41878161  0.50913357    -0.09200
C2128       C  0.75243974  0.45498730  0.51622638    -0.18000
C2129       C  0.74407776  0.48300725  0.51139867     0.04400
C2130       C  0.71282043  0.47254295  0.49994776     0.18600
C2131       C  0.69253455  0.43606571  0.49289154    -0.19400
C2132       C  0.70232629  0.49869584  0.49539882    -0.20700
C2133       C  0.72194671  0.03499880  0.50215348    -0.19200
C2134       C  0.75322478  0.04646558  0.51323682     0.20000
C2135       C  0.76525353  0.02083498  0.51765869     0.02100
C2136       C  0.79803681  0.03427515  0.52811089    -0.14000
C2137       C  0.81652738  0.07068166  0.53490020    -0.11700
C2138       C  0.80308825  0.09497460  0.53163496     0.01600
C2139       C  0.77208525  0.08314246  0.52029663    -0.23900
H2140       H  0.74008859  0.39852726  0.51249598     0.09600
H2141       H  0.77484103  0.46026862  0.52535992     0.13200
H2142       H  0.66949191  0.42870096  0.48366536     0.11900
H2143       H  0.67851252  0.49090816  0.48667618     0.13100
H2144       H  0.71265171  0.05430238  0.49862102     0.12100
H2145       H  0.80987235  0.01719824  0.53143709     0.09200
H2146       H  0.84071939  0.07950430  0.54348274     0.12500
H2147       H  0.76156129  0.10184137  0.51775109     0.14400
C2148       C  0.91021876  0.21141789  0.53362304    -0.01200
C2149       C  0.93545369  0.24892347  0.53757953    -0.09200
C2150       C  0.97185705  0.26636609  0.53098103    -0.18000
C2151       C  0.98437640  0.24661124  0.52020259     0.04400
C2152       C  0.95809415  0.20894760  0.51560717     0.18600
C2153       C  0.92138503  0.19187183  0.52221753    -0.19400
C2154       C  0.96885310  0.18819234  0.50483336    -0.20700
C2155       C  0.50512828  0.20387402  0.49853875    -0.19200
C2156       C  0.53171190  0.24070141  0.50289666     0.20000
C2157       C  0.52191016  0.26268047  0.51386669     0.02100
C2158       C  0.55015180  0.29971229  0.51791472    -0.14000
C2159       C  0.58593361  0.31471793  0.51058617    -0.11700
C2160       C  0.59470574  0.29339846  0.49907432     0.01600
C2161       C  0.56784633  0.25600749  0.49585905    -0.23900
H2162       H  0.92722886  0.26449154  0.54637787     0.09600
H2163       H  0.98970057  0.29508623  0.53483644     0.13200
H2164       H  0.90201191  0.16274008  0.51929324     0.11900
H2165       H  0.94906107  0.15953862  0.50127687     0.13100
H2166       H  0.51243178  0.18704366  0.49012875     0.12100
H2167       H  0.54521511  0.31805693  0.52633766     0.09200
H2168       H  0.60624730  0.34372924  0.51311214     0.12500
H2169       H  0.57464368  0.23937659  0.48698004     0.14400
C2170       C  0.83553223  0.66985684  0.53473589     0.45600
H2171       H  0.83602692  0.67100207  0.51952387    -0.03400
C2172       C  0.83432851  0.66715181  0.57051322     0.45700
H2173       H  0.83389536  0.66590980  0.58575079    -0.03400
C2174       C  0.87444987  0.69135723  0.54373890    -0.17100
C2175       C  0.81337541  0.68638811  0.54379590    -0.16900
C2176       C  0.81786722  0.62981207  0.54263523    -0.17200
C2177       C  0.87310970  0.68955844  0.56251296    -0.17200
C2178       C  0.81324501  0.68494456  0.56261164    -0.16800
C2179       C  0.81750385  0.62905738  0.56142595    -0.17100
C2180       C  0.66710662  0.83210974  0.46031546     0.45600
H2181       H  0.66614054  0.83122953  0.44510048    -0.03400
C2182       C  0.66898445  0.83441818  0.49594891     0.45700
H2183       H  0.66976750  0.83536090  0.51116515    -0.03400
C2184       C  0.62883718  0.81074014  0.46908340    -0.17100
C2185       C  0.68931034  0.81567743  0.46852855    -0.16900
C2186       C  0.68468642  0.87155793  0.46795633    -0.17200
C2187       C  0.62929533  0.81165226  0.48791611    -0.17200
C2188       C  0.69049953  0.81668668  0.48739295    -0.16800
C2189       C  0.68586762  0.87336456  0.48676848    -0.17100
O2190       O  0.63883857  0.85864573  0.71857512    -0.78400
C2191       C  0.62704641  0.75068714  0.71215485     0.82700
O2192       O  0.75591725  0.87724463  0.69435740    -0.79500
O2193       O  0.67411526  0.77226754  0.65663597    -0.81000
O2194       O  0.59376636  0.82467189  0.65854829    -0.80700
O2195       O  0.62482510  0.88249024  0.69466367    -0.79400
Zn2196     Zn  0.66663219  0.83512005  0.70859478     1.55700
O2197       O  0.59538001  0.77187358  0.65796425    -0.80800
Cd2198     Cd  0.64038097  0.86069906  0.67327625     1.59700
Cd2199     Cd  0.71851465  0.86052859  0.67280957     1.59600
O2200       O  0.67388878  0.90318177  0.65566402    -0.80800
O2201       O  0.66655589  0.83471481  0.68225489    -1.91300
Cd2202     Cd  0.64042147  0.78217666  0.67347138     1.59900
O2203       O  0.72859812  0.90610820  0.65722904    -0.80700
O2204       O  0.62244321  0.74468450  0.69498236    -0.79400
C2205       C  0.75053572  0.87713869  0.71157133     0.83200
C2206       C  0.62512626  0.87729883  0.71185625     0.82800
O2207       O  0.64368450  0.78353289  0.71870843    -0.78300
C2208       C  0.58072956  0.79108341  0.65331250     0.83600
O2209       O  0.71819259  0.86340702  0.71835478    -0.78400
C2210       C  0.70781212  0.91783459  0.65101910     0.83800
C2211       C  0.70690837  0.79258089  0.65046241     0.84100
O2212       O  0.72724698  0.82653233  0.65526448    -0.80800
C2213       C  0.49839108  0.49858997  0.79343931     0.45600
H2214       H  0.49798396  0.49809597  0.77822233    -0.03400
C2215       C  0.49923059  0.49933898  0.82911388     0.45700
H2216       H  0.49957332  0.49976233  0.84433728    -0.03400
C2217       C  0.95988169  0.97624110  0.80190854    -0.17100
C2218       C  0.52088279  0.98259572  0.80162666    -0.16900
C2219       C  0.51541670  0.53770101  0.80143444    -0.17200
C2220       C  0.95988372  0.97669094  0.82073549    -0.17200
C2221       C  0.52158210  0.98264182  0.82047133    -0.16800
C2222       C  0.51584131  0.53844455  0.82028259    -0.17100
C2223       C  0.66683574  0.83446102  0.86715988     0.45600
H2224       H  0.66751214  0.83559670  0.85194411    -0.03400
C2225       C  0.66518493  0.83139733  0.90285866     0.45700
H2226       H  0.66424274  0.83000606  0.91807963    -0.03400
C2227       C  0.64578425  0.85220604  0.87606117    -0.17100
C2228       C  0.64806713  0.79434017  0.87501801    -0.16900
C2229       C  0.70566269  0.85463644  0.87619920    -0.17200
C2230       C  0.64538981  0.85058536  0.89489056    -0.17200
C2231       C  0.64720131  0.79330679  0.89377794    -0.16800
C2232       C  0.70451631  0.85271360  0.89506965    -0.17100
C2233       C  0.83392257  0.66687533  0.12585396     0.45600
H2234       H  0.83401242  0.66623429  0.11061085    -0.03400
C2235       C  0.83364140  0.66855826  0.16160174     0.45700
H2236       H  0.83347784  0.66915900  0.17681912    -0.03400
C2237       C  0.79536864  0.65072290  0.13401742    -0.17100
C2238       C  0.84996443  0.64486892  0.13464115    -0.16900
C2239       C  0.85618238  0.70600682  0.13384945    -0.17200
C2240       C  0.79460246  0.65142527  0.15279208    -0.17200
C2241       C  0.85033598  0.64566021  0.15346338    -0.16800
C2242       C  0.85624076  0.70757523  0.15263912    -0.17100
C2243       C  0.50077168  0.50287992  0.20056872     0.45600
H2244       H  0.50002403  0.00226554  0.18535097    -0.03400
C2245       C  0.50275039  0.50444061  0.23632930     0.45700
H2246       H  0.50369621  0.50529105  0.25156791    -0.03400
C2247       C  0.98267558  0.52384649  0.20925885    -0.17100
C2248       C  0.98060701  0.96366517  0.20968272    -0.16900
C2249       C  0.54047029  0.52230954  0.20869671    -0.17200
C2250       C  0.98399251  0.52428660  0.22802751    -0.17200
C2251       C  0.98197340  0.96505552  0.22851824    -0.16800
C2252       C  0.54096463  0.52281390  0.22749761    -0.17100
O2253       O  0.80555219  0.68786056  0.38576106    -0.78400
C2254       C  0.79455081  0.58151873  0.37732135     0.82700
O2255       O  0.92475118  0.71128223  0.36223497    -0.79500
O2256       O  0.84234675  0.60605983  0.32219188    -0.81000
O2257       O  0.76714413  0.66228190  0.32254064    -0.80700
O2258       O  0.79175371  0.71240309  0.36204094    -0.79400
Zn2259     Zn  0.83459142  0.66599885  0.37529059     1.55700
O2260       O  0.76348544  0.60685588  0.32296482    -0.80800
Cd2261     Cd  0.81097524  0.69545329  0.33996761     1.59700
Cd2262     Cd  0.88787488  0.69329095  0.34044910     1.59600
O2263       O  0.84787022  0.74191408  0.32489175    -0.80800
O2264       O  0.83521673  0.66749404  0.34885663    -1.91300
Cd2265     Cd  0.80794943  0.61547754  0.33896265     1.59900
O2266       O  0.89933211  0.73834593  0.32396839    -0.80700
O2267       O  0.78900015  0.57685574  0.36009989    -0.79400
C2268       C  0.91839141  0.71028681  0.37936207     0.83200
C2269       C  0.79141055  0.70626484  0.37920834     0.82800
O2270       O  0.81238700  0.61378589  0.38447049    -0.78300
C2271       C  0.75205037  0.62836405  0.31735271     0.83600
O2272       O  0.88560063  0.69497071  0.38571274    -0.78400
C2273       C  0.88095518  0.75392324  0.31932874     0.83800
C2274       C  0.87666241  0.62564800  0.31813404     0.84100
O2275       O  0.89724846  0.65826976  0.32456384    -0.80800
O2276       O  0.52711248  0.55696991  0.97884120    -0.78400
C2277       C  0.54269647  0.96147484  0.98252389     0.82700
O2278       O  0.91215587  0.95382286  0.00073710    -0.79500
O2279       O  0.99346118  0.92941764  0.03764937    -0.81000
O2280       O  0.57182529  0.56207804  0.03955125    -0.80700
O2281       O  0.54378917  0.59275429  0.00381808    -0.79400
Zn2282     Zn  0.50174001  0.50426339  0.98730714     1.55700
O2283       O  0.57221353  0.50867394  0.03791517    -0.80800
Cd2284     Cd  0.52612648  0.55276781  0.02443045     1.59700
Cd2285     Cd  0.94865961  0.97341224  0.02257767     1.59600
O2286       O  0.99091949  0.55895884  0.04228782    -0.80800
O2287       O  0.50098077  0.50146115  0.01374379    -1.91300
Cd2288     Cd  0.52711545  0.97473017  0.02170494     1.59900
O2289       O  0.93669339  0.50623868  0.03918652    -0.80700
O2290       O  0.54380615  0.95588055  0.99960853    -0.79400
C2291       C  0.91783582  0.95967790  0.98357050     0.83200
C2292       C  0.54203708  0.58876779  0.98646173     0.82800
O2293       O  0.52846292  0.98007765  0.97630780    -0.78300
C2294       C  0.58569149  0.54190172  0.04382145     0.83600
O2295       O  0.95033137  0.97898576  0.97695079    -0.78400
C2296       C  0.95666271  0.53838029  0.04630807     0.83800
C2297       C  0.96042774  0.91584919  0.04347529     0.84100
O2298       O  0.94005548  0.92917445  0.03883352    -0.80800
C2299       C  0.57473125  0.53940729  0.23892271    -0.01200
C2300       C  0.59920064  0.57790184  0.23896652    -0.09200
C2301       C  0.62912549  0.59378984  0.25112722    -0.18000
C2302       C  0.63537359  0.57131264  0.26356978     0.04400
C2303       C  0.61128631  0.53199703  0.26268027     0.18600
C2304       C  0.58102596  0.51656006  0.25061772    -0.19400
C2305       C  0.61720028  0.50831299  0.27400926    -0.20700
C2306       C  0.64628189  0.52283387  0.28648744    -0.19200
C2307       C  0.66961693  0.56142443  0.28824964     0.20000
C2308       C  0.66436937  0.58629294  0.27692788     0.02100
C2309       C  0.68784096  0.62501578  0.27978918    -0.14000
C2310       C  0.71552441  0.63840079  0.29316637    -0.11700
C2311       C  0.72114577  0.61380478  0.30398805     0.01600
C2312       C  0.69803101  0.57529604  0.30141373    -0.23900
H2313       H  0.59454549  0.59579010  0.22988249     0.09600
H2314       H  0.64677222  0.62366119  0.25049278     0.13200
H2315       H  0.56206233  0.98665163  0.25036947     0.11900
H2316       H  0.59914367  0.97832655  0.27323927     0.13100
H2317       H  0.65014261  0.50372822  0.29505990     0.12100
H2318       H  0.68523791  0.64570296  0.27206137     0.09200
H2319       H  0.73306498  0.66827324  0.29481763     0.12500
H2320       H  0.70194140  0.55597376  0.30980031     0.14400
C2321       C  0.96655027  0.93244845  0.24094949    -0.01200
C2322       C  0.97853624  0.90660907  0.23996544    -0.09200
C2323       C  0.96614020  0.87758706  0.25271530    -0.18000
C2324       C  0.94109245  0.87356566  0.26683555     0.04400
C2325       C  0.92833491  0.89945751  0.26735971     0.18600
C2326       C  0.94162936  0.92887609  0.25468345    -0.19400
C2327       C  0.90226611  0.89578837  0.28047899    -0.20700
C2328       C  0.88805145  0.86651251  0.29297966    -0.19200
C2329       C  0.90042666  0.84088618  0.29304381     0.20000
C2330       C  0.92784840  0.84457779  0.28028975     0.02100
C2331       C  0.94096011  0.81925539  0.28167334    -0.14000
C2332       C  0.92643860  0.79070388  0.29470919    -0.11700
C2333       C  0.89811910  0.78608338  0.30662367     0.01600
C2334       C  0.88545601  0.81149582  0.30580298    -0.23900
H2335       H  0.49815492  0.90934082  0.22949752     0.09600
H2336       H  0.97637674  0.85862228  0.25106561     0.13200
H2337       H  0.93241185  0.94900949  0.25538877     0.11900
H2338       H  0.89238744  0.91538726  0.28089990     0.13100
H2339       H  0.86740384  0.86405971  0.30276352     0.12100
H2340       H  0.96256761  0.82091850  0.27297205     0.09200
H2341       H  0.93684207  0.77153710  0.29513779     0.12500
H2342       H  0.86396249  0.80848102  0.31517790     0.14400
C2343       C  0.89317551  0.61084288  0.30519466    -0.01200
C2344       C  0.93176108  0.62867869  0.30329088    -0.09200
C2345       C  0.94782550  0.61641754  0.29044252    -0.18000
C2346       C  0.92566604  0.58579156  0.27890351     0.04400
C2347       C  0.88647580  0.56783773  0.28082792     0.18600
C2348       C  0.87067640  0.58025230  0.29398505    -0.19400
C2349       C  0.86327004  0.53776517  0.26953550    -0.20700
C2350       C  0.87815131  0.52487649  0.25640134    -0.19200
C2351       C  0.91658014  0.54152362  0.25438626     0.20000
C2352       C  0.94096787  0.57225509  0.26560502     0.02100
C2353       C  0.97962181  0.58759965  0.26325543    -0.14000
C2354       C  0.99330458  0.57231401  0.25071363    -0.11700
C2355       C  0.96908293  0.54209668  0.23989674     0.01600
C2356       C  0.93085544  0.52703820  0.24150917    -0.23900
H2357       H  0.94978832  0.65246005  0.31174803     0.09600
H2358       H  0.97765923  0.63180186  0.28981957     0.13200
H2359       H  0.84074949  0.56653157  0.29521385     0.11900
H2360       H  0.83338121  0.02408672  0.27088124     0.13100
H2361       H  0.85947800  0.00143382  0.24790729     0.12100
H2362       H  0.00003999  0.61079979  0.27114827     0.09200
H2363       H  0.52300177  0.58389935  0.24954193     0.12500
H2364       H  0.91229890  0.00319345  0.23318086     0.14400
C2365       C  0.87452386  0.73849210  0.12164991    -0.01200
C2366       C  0.90077778  0.74084459  0.10910071    -0.09200
C2367       C  0.91670321  0.77003240  0.09654244    -0.18000
C2368       C  0.90603559  0.79736244  0.09600020     0.04400
C2369       C  0.87896904  0.79442456  0.10879716     0.18600
C2370       C  0.86386621  0.76536551  0.12163396    -0.19400
C2371       C  0.86635225  0.81982519  0.10835631    -0.20700
C2372       C  0.87930383  0.84761401  0.09510301    -0.19200
C2373       C  0.90586288  0.85119599  0.08231631     0.20000
C2374       C  0.92039471  0.82678831  0.08287935     0.02100
C2375       C  0.94864124  0.83291953  0.07026931    -0.14000
C2376       C  0.96125292  0.86155197  0.05739368    -0.11700
C2377       C  0.94589828  0.88462904  0.05653156     0.01600
C2378       C  0.91821624  0.87931117  0.06901851    -0.23900
H2379       H  0.90879126  0.71977012  0.10895996     0.09600
H2380       H  0.93640330  0.76973140  0.08713295     0.13200
H2381       H  0.84284303  0.76280740  0.13121068     0.11900
H2382       H  0.84574883  0.81768905  0.11807539     0.13100
H2383       H  0.86849719  0.86646979  0.09486296     0.12100
H2384       H  0.96199378  0.81651444  0.07016005     0.09200
H2385       H  0.98311227  0.86560139  0.04802923     0.12500
H2386       H  0.90692315  0.89776870  0.06870498     0.14400
C2387       C  0.61752102  0.55706250  0.05653576    -0.01200
C2388       C  0.62526373  0.53294969  0.06650223    -0.09200
C2389       C  0.65337640  0.54681722  0.07963003    -0.18000
C2390       C  0.67506392  0.58553387  0.08304986     0.04400
C2391       C  0.66825080  0.60996688  0.07224843     0.18600
C2392       C  0.63931735  0.59557861  0.05940797    -0.19400
C2393       C  0.69044594  0.64863497  0.07426058    -0.20700
C2394       C  0.71968282  0.66367441  0.08664387    -0.19200
C2395       C  0.72649674  0.64038912  0.09780056     0.20000
C2396       C  0.70364762  0.60094750  0.09655480     0.02100
C2397       C  0.71025433  0.57875835  0.10899685    -0.14000
C2398       C  0.73926473  0.59511673  0.12161271    -0.11700
C2399       C  0.76251324  0.63377955  0.12206234     0.01600
C2400       C  0.75611608  0.65632404  0.11021759    -0.23900
H2401       H  0.60892734  0.50306716  0.06446242     0.09600
H2402       H  0.65774132  0.52657458  0.08672223     0.13200
H2403       H  0.63387805  0.61448468  0.05154949     0.11900
H2404       H  0.68551320  0.66739743  0.06599344     0.13100
H2405       H  0.73683016  0.69374165  0.08765300     0.12100
H2406       H  0.69332342  0.54878315  0.10941729     0.09200
H2407       H  0.74415422  0.57751773  0.13078842     0.12500
H2408       H  0.77427321  0.68636038  0.11074766     0.14400
C2409       C  0.86418418  0.62562537  0.12308103    -0.01200
C2410       C  0.84025366  0.59796661  0.11090157    -0.09200
C2411       C  0.85355858  0.58130352  0.09888134    -0.18000
C2412       C  0.89168552  0.59262994  0.09841301     0.04400
C2413       C  0.91586658  0.62115625  0.11074312     0.18600
C2414       C  0.90185771  0.63689677  0.12311509    -0.19400
C2415       C  0.95403916  0.63462914  0.11026111    -0.20700
C2416       C  0.96896301  0.62116304  0.09743265    -0.19200
C2417       C  0.94598076  0.59315093  0.08510227     0.20000
C2418       C  0.90689251  0.57765943  0.08575917     0.02100
C2419       C  0.88483990  0.54799658  0.07366394    -0.14000
C2420       C  0.90104383  0.53528037  0.06102247    -0.11700
C2421       C  0.93967437  0.55184481  0.05984561     0.01600
C2422       C  0.96193231  0.58057127  0.07207681    -0.23900
H2423       H  0.81108821  0.58941603  0.11061362     0.09600
H2424       H  0.83352919  0.56051598  0.08975034     0.13200
H2425       H  0.92044348  0.65896301  0.13231886     0.11900
H2426       H  0.97259815  0.65637405  0.11959383     0.13100
H2427       H  0.49874845  0.63278762  0.09714511     0.12100
H2428       H  0.85497623  0.53380793  0.07374057     0.09200
H2429       H  0.88316486  0.51258115  0.05196623     0.12500
H2430       H  0.99182307  0.59294310  0.07161513     0.14400
C2431       C  0.96677850  0.54334471  0.19889650    -0.01200
C2432       C  0.98113352  0.58159992  0.20160260    -0.09200
C2433       C  0.96254009  0.59930382  0.19500495    -0.18000
C2434       C  0.92862247  0.57911311  0.18543575     0.04400
C2435       C  0.91521396  0.54064462  0.18188725     0.18600
C2436       C  0.93433262  0.52318282  0.18861582    -0.19400
C2437       C  0.88239008  0.51966303  0.17196398    -0.20700
C2438       C  0.86264180  0.53599829  0.16539410    -0.19200
C2439       C  0.87478516  0.57358465  0.16886270     0.20000
C2440       C  0.90762431  0.59563811  0.17919022     0.02100
C2441       C  0.91783729  0.63317884  0.18279361    -0.14000
C2442       C  0.89753097  0.64862746  0.17550388    -0.11700
C2443       C  0.86657633  0.62727698  0.16445371     0.01600
C2444       C  0.85468253  0.58948258  0.16167622    -0.23900
H2445       H  0.50633764  0.59763783  0.20947060     0.09600
H2446       H  0.97519150  0.62870798  0.19779255     0.13200
H2447       H  0.92306471  0.99351665  0.18660227     0.11900
H2448       H  0.87198415  0.99040271  0.16918339     0.13100
H2449       H  0.83759004  0.51904552  0.15755098     0.12100
H2450       H  0.94170021  0.65146248  0.19095599     0.09200
H2451       H  0.90713901  0.67790032  0.17774311     0.12500
H2452       H  0.83046999  0.57281080  0.15321693     0.14400
C2453       C  0.75930889  0.63566839  0.16318318    -0.01200
C2454       C  0.74937292  0.60596682  0.17521099    -0.09200
C2455       C  0.71347929  0.58614924  0.18240844    -0.18000
C2456       C  0.68633104  0.59565049  0.17775636     0.04400
C2457       C  0.69739376  0.62745971  0.16646858     0.18600
C2458       C  0.73355909  0.64698964  0.15925193    -0.19400
C2459       C  0.67211774  0.63914143  0.16222358    -0.20700
C2460       C  0.63601001  0.61995269  0.16904285    -0.19200
C2461       C  0.62393062  0.58795797  0.17984562     0.20000
C2462       C  0.64876247  0.57492166  0.18400543     0.02100
C2463       C  0.63483033  0.54148917  0.19414652    -0.14000
C2464       C  0.59867161  0.52320007  0.20088562    -0.11700
C2465       C  0.57514245  0.53745227  0.19784237     0.01600
C2466       C  0.58742842  0.56924553  0.18685984    -0.23900
H2467       H  0.76896241  0.59694196  0.17838709     0.09600
H2468       H  0.70778920  0.56338398  0.19147228     0.13200
H2469       H  0.74144980  0.67039858  0.15008354     0.11900
H2470       H  0.68041711  0.66346064  0.15366891     0.13100
H2471       H  0.61732706  0.63005408  0.16573464     0.12100
H2472       H  0.65124976  0.52886991  0.19723284     0.09200
H2473       H  0.58940557  0.49844517  0.20923389     0.12500
H2474       H  0.56920843  0.58034668  0.18451971     0.14400
C2475       C  0.96181201  0.92787334  0.19935819    -0.01200
C2476       C  0.98176921  0.91917396  0.18694173    -0.09200
C2477       C  0.96592410  0.88343379  0.17926359    -0.18000
C2478       C  0.92925956  0.85520537  0.18373820     0.04400
C2479       C  0.90846993  0.86500518  0.19554524     0.18600
C2480       C  0.92487890  0.90092638  0.20326643    -0.19400
C2481       C  0.87158574  0.83872797  0.19979735    -0.20700
C2482       C  0.85482945  0.80275429  0.19264683    -0.19200
C2483       C  0.87473127  0.79176701  0.18137890     0.20000
C2484       C  0.91241498  0.81772982  0.17693275     0.02100
C2485       C  0.93163798  0.80486490  0.16602623    -0.14000
C2486       C  0.91380025  0.76845924  0.15919356    -0.11700
C2487       C  0.87622780  0.74356254  0.16284289     0.01600
C2488       C  0.85704038  0.75510344  0.17431339    -0.23900
H2489       H  0.01028597  0.93967619  0.18373253     0.09600
H2490       H  0.98314151  0.87866734  0.16996893     0.13200
H2491       H  0.90916331  0.90777632  0.21270777     0.11900
H2492       H  0.85551676  0.84608548  0.20870289     0.17300
H2493       H  0.82614211  0.78325310  0.19610218     0.12100
H2494       H  0.96046566  0.82232636  0.16246865     0.09200
H2495       H  0.92921521  0.75995058  0.15048953     0.12500
H2496       H  0.82791772  0.73599967  0.17712611     0.14400
C2497       C  0.73700990  0.86742613  0.90755426    -0.01200
C2498       C  0.73650289  0.84530607  0.92217864    -0.09200
C2499       C  0.76519599  0.85910036  0.93494634    -0.18000
C2500       C  0.79590902  0.89560430  0.93331070     0.04400
C2501       C  0.79708381  0.91740841  0.91802888     0.18600
C2502       C  0.76709322  0.90378364  0.90584819    -0.19400
C2503       C  0.82816274  0.95266762  0.91501402    -0.20700
C2504       C  0.85832087  0.96667860  0.92684524    -0.19200
C2505       C  0.85725447  0.94655501  0.94246803     0.20000
C2506       C  0.82556780  0.91117284  0.94620401     0.02100
C2507       C  0.82455673  0.89333180  0.96289636    -0.14000
C2508       C  0.85423854  0.90954321  0.97511513    -0.11700
C2509       C  0.88605547  0.94349144  0.97092805     0.01600
C2510       C  0.88747073  0.96186275  0.95456639    -0.23900
H2511       H  0.71357528  0.81714267  0.92388472     0.09600
H2512       H  0.76291406  0.84025009  0.94571147     0.13200
H2513       H  0.76688478  0.92210539  0.89541572     0.11900
H2514       H  0.82942070  0.96923192  0.90323847     0.13100
H2515       H  0.88228805  0.99377976  0.92398182     0.12100
H2516       H  0.80088755  0.86726437  0.96709233     0.09200
H2517       H  0.85255399  0.89510984  0.98777585     0.12500
H2518       H  0.91181605  0.98857902  0.95146400     0.14400
C2519       C  0.63051090  0.75930619  0.90507365    -0.01200
C2520       C  0.65293941  0.74617861  0.91193319    -0.09200
C2521       C  0.63952020  0.71827029  0.92521294    -0.18000
C2522       C  0.60315394  0.70311976  0.93225537     0.04400
C2523       C  0.57993635  0.71546801  0.92452271     0.18600
C2524       C  0.59385699  0.74350914  0.91106354    -0.19400
C2525       C  0.54332407  0.70039565  0.93057851    -0.20700
C2526       C  0.52921471  0.67327754  0.94422668    -0.19200
C2527       C  0.55162063  0.66118727  0.95240290     0.20000
C2528       C  0.58912022  0.67634986  0.94672712     0.02100
C2529       C  0.61104364  0.66428170  0.95591359    -0.14000
C2530       C  0.59589322  0.63716368  0.96957535    -0.11700
C2531       C  0.55873723  0.62147089  0.97452921     0.01600
C2532       C  0.53669150  0.63363871  0.96609454    -0.23900
H2533       H  0.68138553  0.75832439  0.90732911     0.09600
H2534       H  0.65845746  0.70957529  0.92981842     0.13200
H2535       H  0.57669813  0.75406171  0.90571265     0.11900
H2536       H  0.52548408  0.70961503  0.92470728     0.13100
H2537       H  0.00065889  0.66190985  0.94853080     0.12100
H2538       H  0.63989571  0.67504387  0.95283161     0.09200
H2539       H  0.61299432  0.62751937  0.97592759     0.12500
H2540       H  0.50770586  0.62099506  0.96991492     0.14400
C2541       C  0.62971755  0.86751105  0.90711379    -0.01200
C2542       C  0.63933173  0.90473113  0.90481445    -0.09200
C2543       C  0.62556189  0.92112190  0.91665012    -0.18000
C2544       C  0.60211476  0.90077459  0.93144761     0.04400
C2545       C  0.59347607  0.86328960  0.93404336     0.18600
C2546       C  0.60704635  0.84699432  0.92181386    -0.19400
C2547       C  0.57172651  0.84246220  0.94893567    -0.20700
C2548       C  0.55869460  0.85826108  0.96150692    -0.19200
C2549       C  0.56632356  0.89492622  0.95921219     0.20000
C2550       C  0.58747960  0.91646343  0.94392461     0.02100
C2551       C  0.59266813  0.95261717  0.94167647    -0.14000
C2552       C  0.57788822  0.96688931  0.95420293    -0.11700
C2553       C  0.55820888  0.94603127  0.96950730     0.01600
C2554       C  0.55259476  0.91014052  0.97202120    -0.23900
H2555       H  0.65804576  0.92142151  0.89393481     0.09600
H2556       H  0.63452160  0.95000167  0.91408476     0.13200
H2557       H  0.60010096  0.81828761  0.92376663     0.11900
H2558       H  0.56514299  0.81391125  0.95099900     0.13100
H2559       H  0.54228032  0.84158529  0.97302843     0.12100
H2560       H  0.60740112  0.97033975  0.93021684     0.09200
H2561       H  0.58221292  0.99461967  0.95202563     0.12500
H2562       H  0.53667694  0.89370217  0.98372256     0.14400
C2563       C  0.62737237  0.86919213  0.86561483    -0.01200
C2564       C  0.64785601  0.89927736  0.85380069    -0.09200
C2565       C  0.63238673  0.91975905  0.84665962    -0.18000
C2566       C  0.59569998  0.91059835  0.85117342     0.04400
C2567       C  0.57456248  0.87880644  0.86246230     0.18600
C2568       C  0.59038559  0.85842832  0.86940285    -0.19400
C2569       C  0.53795206  0.86791475  0.86709641    -0.20700
C2570       C  0.52159655  0.88774704  0.86067052    -0.19200
C2571       C  0.54154172  0.91929473  0.84961162     0.20000
C2572       C  0.57908490  0.93154850  0.84489062     0.02100
C2573       C  0.59818623  0.96415834  0.83406520    -0.14000
C2574       C  0.58012397  0.98235632  0.82735854    -0.11700
C2575       C  0.54252794  0.96873037  0.83112289     0.01600
C2576       C  0.52376093  0.93801962  0.84280125    -0.23900
H2577       H  0.67649503  0.90803662  0.85076272     0.09600
H2578       H  0.64999047  0.94292606  0.83787259     0.13200
H2579       H  0.57434037  0.83488221  0.87844272     0.11900
H2580       H  0.52175744  0.84374443  0.87573288     0.13100
H2581       H  0.99305902  0.87826945  0.86435591     0.12100
H2582       H  0.62687700  0.97587200  0.83026457     0.09200
H2583       H  0.59514236  0.50628583  0.81843342     0.12500
H2584       H  0.99464212  0.92736941  0.84569274     0.14400
C2585       C  0.53107316  0.57366402  0.83079492    -0.01200
C2586       C  0.51679147  0.59728590  0.82785052    -0.09200
C2587       C  0.53565229  0.63405080  0.83411748    -0.18000
C2588       C  0.56985756  0.64854499  0.84344990     0.04400
C2589       C  0.58331551  0.62378432  0.84714105     0.18600
C2590       C  0.56363357  0.58656822  0.84100017    -0.19400
C2591       C  0.61685057  0.63661311  0.85648577    -0.20700
C2592       C  0.63716989  0.67338545  0.86244823    -0.19200
C2593       C  0.62461957  0.69836115  0.85911106     0.20000
C2594       C  0.59108894  0.68656767  0.84931401     0.02100
C2595       C  0.58025551  0.71336275  0.84598058    -0.14000
C2596       C  0.60039266  0.74939524  0.85326065    -0.11700
C2597       C  0.63197172  0.75986491  0.86385073     0.01600
C2598       C  0.64482402  0.73480952  0.86605663    -0.23900
H2599       H  0.99165643  0.58763471  0.81991176     0.09600
H2600       H  0.52311279  0.65061746  0.83109915     0.13200
H2601       H  0.57490498  0.56835899  0.84307462     0.11900
H2602       H  0.62738876  0.61802454  0.85926348     0.13100
H2603       H  0.66278002  0.68228987  0.86986725     0.12100
H2604       H  0.55583339  0.70706339  0.83821561     0.09200
H2605       H  0.59021311  0.76854278  0.85139786     0.12500
H2606       H  0.66980828  0.74327162  0.87395784     0.14400
C2607       C  0.92522155  0.95917504  0.83166986    -0.01200
C2608       C  0.91202898  0.98144195  0.83891739    -0.09200
C2609       C  0.87570578  0.96529371  0.84556354    -0.18000
C2610       C  0.85188003  0.92611693  0.84563871     0.04400
C2611       C  0.86676715  0.90364372  0.83990378     0.18600
C2612       C  0.90278625  0.92028842  0.83250135    -0.19400
C2613       C  0.84545024  0.86475527  0.84145966    -0.20700
C2614       C  0.80989723  0.84775574  0.84892994    -0.19200
C2615       C  0.79389158  0.86903787  0.85393179     0.20000
C2616       C  0.81407420  0.90840630  0.85152300     0.02100
C2617       C  0.79521967  0.92816374  0.85467508    -0.14000
C2618       C  0.75868862  0.90983549  0.86115123    -0.11700
C2619       C  0.74070844  0.87189577  0.86557834     0.01600
C2620       C  0.75791606  0.85133779  0.86144634    -0.23900
H2621       H  0.92915646  0.51155990  0.83838348     0.09600
H2622       H  0.86699120  0.98401932  0.85067681     0.13200
H2623       H  0.91319616  0.90306024  0.82702802     0.11900
H2624       H  0.85666886  0.84741931  0.83725176     0.13100
H2625       H  0.79453404  0.81768480  0.85047000     0.12100
H2626       H  0.80795129  0.95768223  0.85203897     0.09200
H2627       H  0.74525869  0.92583841  0.86387672     0.12500
H2628       H  0.74348135  0.82167630  0.86439326     0.14400
C2629       C  0.92687247  0.95736335  0.78986776    -0.01200
C2630       C  0.92760664  0.93668457  0.77491653    -0.09200
C2631       C  0.89945264  0.92279750  0.76184535    -0.18000
C2632       C  0.86933442  0.92907002  0.76340664     0.04400
C2633       C  0.86777971  0.94843657  0.77913421     0.18600
C2634       C  0.89679978  0.96304113  0.79192864    -0.19400
C2635       C  0.83755975  0.95363396  0.78185217    -0.20700
C2636       C  0.80873406  0.93999411  0.76924311    -0.19200
C2637       C  0.81008693  0.92197338  0.75331874     0.20000
C2638       C  0.84075974  0.91689736  0.74995834     0.02100
C2639       C  0.84181019  0.90055919  0.73311948    -0.14000
C2640       C  0.81308365  0.88885855  0.72041501    -0.11700
C2641       C  0.78225509  0.89244565  0.72422398     0.01600
C2642       C  0.78095559  0.90912653  0.74065679    -0.23900
H2643       H  0.95056399  0.93180584  0.77315188     0.09600
H2644       H  0.90199208  0.90715140  0.75073528     0.13200
H2645       H  0.89655401  0.48006332  0.80306600     0.11900
H2646       H  0.83607724  0.46810611  0.79388741     0.13100
H2647       H  0.78549637  0.94409732  0.77182033     0.12100
H2648       H  0.86463956  0.89685202  0.72925980     0.09200
H2649       H  0.81451896  0.87602677  0.70776129     0.12500
H2650       H  0.75727969  0.91240210  0.74351639     0.14400
C2651       C  0.61265192  0.71908693  0.72498112    -0.01200
C2652       C  0.63030531  0.72331567  0.74183789    -0.09200
C2653       C  0.61606529  0.69444337  0.75460668    -0.18000
C2654       C  0.58306529  0.66047670  0.75101362     0.04400
C2655       C  0.56489009  0.65660497  0.73397640     0.18600
C2656       C  0.58028581  0.68546454  0.72097451    -0.19400
C2657       C  0.53096425  0.62440790  0.73024596    -0.20700
C2658       C  0.51421108  0.59628232  0.74328067    -0.19200
C2659       C  0.53172596  0.59905560  0.76003481     0.20000
C2660       C  0.56695999  0.63064129  0.76391047     0.02100
C2661       C  0.58481559  0.63065326  0.78037101    -0.14000
C2662       C  0.56804097  0.60079458  0.79256136    -0.11700
C2663       C  0.53242665  0.57072013  0.78915351     0.01600
C2664       C  0.51447679  0.57006518  0.77283557    -0.23900
H2665       H  0.65529499  0.74922892  0.74520209     0.09600
H2666       H  0.63086986  0.70005826  0.76739101     0.13200
H2667       H  0.56621089  0.68238261  0.70803975     0.11900
H2668       H  0.51688651  0.62133435  0.71732705     0.13100
H2669       H  0.98757011  0.57198694  0.74015138     0.12100
H2670       H  0.61236853  0.65260631  0.78387779     0.09200
H2671       H  0.58355729  0.60086974  0.80443119     0.12500
H2672       H  0.98716732  0.54651223  0.76992698     0.14400
C2673       C  0.60961611  0.89342023  0.72450155    -0.01200
C2674       C  0.61115665  0.92701632  0.72031456    -0.09200
C2675       C  0.59840810  0.94334083  0.73284255    -0.18000
C2676       C  0.58313045  0.92603005  0.74988644     0.04400
C2677       C  0.58040672  0.89117615  0.75368711     0.18600
C2678       C  0.59411790  0.87559184  0.74116241    -0.19400
C2679       C  0.56385757  0.87193931  0.76991632    -0.20700
C2680       C  0.54931915  0.88632849  0.78241187    -0.19200
C2681       C  0.55196258  0.92076134  0.77919992     0.20000
C2682       C  0.56982235  0.94162693  0.76313577     0.02100
C2683       C  0.57361139  0.97719407  0.76107222    -0.14000
C2684       C  0.55895520  0.99070433  0.77404385    -0.11700
C2685       C  0.53979103  0.96920527  0.78932784     0.01600
C2686       C  0.53644933  0.93429754  0.79187627    -0.23900
H2687       H  0.62300610  0.94113759  0.70746140     0.09600
H2688       H  0.60046567  0.96921243  0.72867665     0.13200
H2689       H  0.59237044  0.84922120  0.74430448     0.11900
H2690       H  0.56165135  0.84530678  0.77283474     0.13100
H2691       H  0.53609184  0.87051079  0.79472538     0.12100
H2692       H  0.58797396  0.99537596  0.74968399     0.09200
H2693       H  0.56226733  0.01806841  0.77200023     0.12500
H2694       H  0.52106300  0.91726599  0.80352535     0.14400
C2695       C  0.70715721  0.80076076  0.45622340    -0.01200
C2696       C  0.72510229  0.82082900  0.44038024    -0.09200
C2697       C  0.73906894  0.80637165  0.42752694    -0.18000
C2698       C  0.73619516  0.77137788  0.43030117     0.04400
C2699       C  0.72041728  0.75226978  0.44700974     0.18600
C2700       C  0.70481310  0.76632728  0.45945040    -0.19400
C2701       C  0.72035673  0.71931768  0.45114175    -0.20700
C2702       C  0.73560495  0.70494677  0.43895197    -0.19200
C2703       C  0.74943030  0.72209380  0.42194245     0.20000
C2704       C  0.74888752  0.75497169  0.41717432     0.02100
C2705       C  0.76012257  0.76949484  0.39928879    -0.14000
C2706       C  0.77279643  0.75291135  0.38690258    -0.11700
C2707       C  0.77526991  0.72177023  0.39198594     0.01600
C2708       C  0.76341349  0.70638317  0.40953663    -0.23900
H2709       H  0.72815387  0.84793831  0.43781325     0.09600
H2710       H  0.75270362  0.82360507  0.41575111     0.13200
H2711       H  0.69059247  0.75026478  0.47152647     0.11900
H2712       H  0.70897467  0.70490935  0.46399187     0.13100
H2713       H  0.73575421  0.67974848  0.44266310     0.12100
H2714       H  0.75866788  0.79317389  0.39433263     0.09200
H2715       H  0.78146752  0.76506856  0.37338080     0.12500
H2716       H  0.76458353  0.68180781  0.41346142     0.14400
C2717       C  0.94940658  0.72664296  0.39241839    -0.01200
C2718       C  0.94666361  0.74374773  0.40836168    -0.09200
C2719       C  0.97466652  0.75731515  0.42149984    -0.18000
C2720       C  0.50615029  0.75343817  0.41923138     0.04400
C2721       C  0.50837357  0.73532852  0.40313761     0.18600
C2722       C  0.98051387  0.72291255  0.38973776    -0.19400
C2723       C  0.53801516  0.72911036  0.40067348    -0.20700
C2724       C  0.56567887  0.74062115  0.41383756    -0.19200
C2725       C  0.56488007  0.75955215  0.42952126     0.20000
C2726       C  0.53531939  0.76658631  0.43239497     0.02100
C2727       C  0.53676637  0.78729689  0.44807951    -0.14000
C2728       C  0.56664948  0.80095466  0.46015988    -0.11700
C2729       C  0.59532470  0.79342365  0.45735985     0.01600
C2730       C  0.59408488  0.77240301  0.44212808    -0.23900
H2731       H  0.92259497  0.74659206  0.41069758     0.09600
H2732       H  0.97037440  0.76986232  0.43344635     0.13200
H2733       H  0.98228600  0.70897973  0.37754268     0.11900
H2734       H  0.53967551  0.71498944  0.38853834     0.13100
H2735       H  0.58822094  0.73529262  0.41157224     0.12100
H2736       H  0.51601122  0.79462423  0.45105235     0.09200
H2737       H  0.56779558  0.81836299  0.47146198     0.12500
H2738       H  0.61650767  0.76686634  0.43984407     0.14400
C2739       C  0.69989526  0.90366995  0.45524993    -0.01200
C2740       C  0.67835620  0.90277667  0.44039940    -0.09200
C2741       C  0.69296457  0.93071759  0.42715822    -0.18000
C2742       C  0.72985698  0.96068633  0.42843063     0.04400
C2743       C  0.75114063  0.96222246  0.44397912     0.18600
C2744       C  0.73630166  0.93340777  0.45699661    -0.19400
C2745       C  0.78707497  0.99243096  0.44639089    -0.20700
C2746       C  0.80223523  0.52147466  0.43375848    -0.19200
C2747       C  0.78226999  0.52030390  0.41811426     0.20000
C2748       C  0.74619667  0.98938477  0.41495434     0.02100
C2749       C  0.72821679  0.48835470  0.39833912    -0.14000
C2750       C  0.74471404  0.51765634  0.38580452    -0.11700
C2751       C  0.77921016  0.54896816  0.38955292     0.01600
C2752       C  0.79808853  0.54999458  0.40560548    -0.23900
H2753       H  0.65001382  0.88007345  0.43896262     0.09600
H2754       H  0.67451842  0.92826585  0.41622904     0.13200
H2755       H  0.75327252  0.93383138  0.46834342     0.11900
H2756       H  0.80335146  0.99386835  0.45826596     0.13100
H2757       H  0.82988043  0.54484349  0.43615039     0.12100
H2758       H  0.70154309  0.96521603  0.39455365     0.09200
H2759       H  0.72986571  0.51636224  0.37339366     0.12500
H2760       H  0.82518446  0.57401778  0.40835048     0.14400
C2761       C  0.72143646  0.77612166  0.63726711    -0.01200
C2762       C  0.70581987  0.73737988  0.63648192    -0.09200
C2763       C  0.71918621  0.72126855  0.62421011    -0.18000
C2764       C  0.74860764  0.74350155  0.61208234     0.04400
C2765       C  0.76333703  0.78274191  0.61235431     0.18600
C2766       C  0.75008935  0.79868393  0.62506835    -0.19400
C2767       C  0.79109826  0.80575187  0.59991239    -0.20700
C2768       C  0.80481234  0.79064880  0.58728267    -0.19200
C2769       C  0.79179505  0.75229145  0.58711075     0.20000
C2770       C  0.76381018  0.72818926  0.59967138     0.02100
C2771       C  0.75293175  0.68992806  0.59957282    -0.14000
C2772       C  0.76898572  0.67624296  0.58744776    -0.11700
C2773       C  0.79570637  0.69992303  0.57485199     0.01600
C2774       C  0.80708325  0.73790372  0.57468552    -0.23900
H2775       H  0.68331092  0.71932172  0.64557656     0.09600
H2776       H  0.70554632  0.69126599  0.62442277     0.13200
H2777       H  0.76173341  0.82867529  0.62527874     0.11900
H2778       H  0.80220110  0.83564589  0.59990501     0.13100
H2779       H  0.82620122  0.80917700  0.57778833     0.12100
H2780       H  0.73275407  0.66998966  0.60897376     0.09200
H2781       H  0.76042976  0.64689475  0.58785863     0.12500
H2782       H  0.82852130  0.75633805  0.56516906     0.14400
C2783       C  0.54866958  0.77427363  0.64081572    -0.01200
C2784       C  0.54017895  0.74182652  0.63113830    -0.09200
C2785       C  0.51222850  0.72744116  0.61800873    -0.18000
C2786       C  0.99156552  0.74503811  0.61420889     0.04400
C2787       C  0.99893808  0.77681146  0.62476271     0.18600
C2788       C  0.52762437  0.79139776  0.63772756    -0.19400
C2789       C  0.97765318  0.79382499  0.62230938    -0.20700
C2790       C  0.94882705  0.77965213  0.60968733    -0.19200
C2791       C  0.94154992  0.74901402  0.59878314     0.20000
C2792       C  0.96349051  0.73188205  0.60051313     0.02100
C2793       C  0.95657802  0.70255500  0.58833397    -0.14000
C2794       C  0.92797943  0.68976929  0.57554806    -0.11700
C2795       C  0.90556441  0.70566562  0.57463248     0.01600
C2796       C  0.91235444  0.73524785  0.58614819    -0.23900
H2797       H  0.55581455  0.72785206  0.63338230     0.09600
H2798       H  0.50727741  0.70234251  0.61120230     0.13200
H2799       H  0.53362942  0.81619193  0.64537556     0.11900
H2800       H  0.98300991  0.81792974  0.63037732     0.13100
H2801       H  0.93236800  0.79298955  0.60830177     0.12100
H2802       H  0.97291738  0.68915211  0.58823187     0.09200
H2803       H  0.92275572  0.66682037  0.56659765     0.12500
H2804       H  0.89480456  0.74748662  0.58521593     0.14400
C2805       C  0.80083870  0.59492464  0.57257838    -0.01200
C2806       C  0.76255256  0.57073425  0.57232158    -0.09200
C2807       C  0.74614259  0.54040964  0.58425604    -0.18000
C2808       C  0.76789971  0.53362967  0.59681129     0.04400
C2809       C  0.80711342  0.55710128  0.59604256     0.18600
C2810       C  0.82312523  0.58784584  0.58418282    -0.19400
C2811       C  0.82999594  0.55012744  0.60732953    -0.20700
C2812       C  0.81471402  0.52076201  0.61975702    -0.19200
C2813       C  0.77620485  0.49847658  0.62155834     0.20000
C2814       C  0.75220621  0.50474817  0.61022179     0.02100
C2815       C  0.71357298  0.98265192  0.61321317    -0.14000
C2816       C  0.69943360  0.95516961  0.62672726    -0.11700
C2817       C  0.72317706  0.94849691  0.63753823     0.01600
C2818       C  0.76155463  0.97024214  0.63485456    -0.23900
H2819       H  0.74522597  0.57596430  0.56318597     0.09600
H2820       H  0.71645752  0.52291656  0.58335165     0.13200
H2821       H  0.85294120  0.60657858  0.58405621     0.11900
H2822       H  0.85991721  0.56761049  0.60659739     0.13100
H2823       H  0.83312157  0.51603752  0.62833755     0.12100
H2824       H  0.69358018  0.98632071  0.60558505     0.09200
H2825       H  0.66964066  0.93868615  0.62851401     0.12500
H2826       H  0.78015144  0.96546726  0.64326756     0.14400
C2827       C  0.70981781  0.80146607  0.49834619    -0.01200
C2828       C  0.68978710  0.77256205  0.51081044    -0.09200
C2829       C  0.70532474  0.75252586  0.51830548    -0.18000
C2830       C  0.74158857  0.76089935  0.51345380     0.04400
C2831       C  0.76258029  0.79194573  0.50171083     0.18600
C2832       C  0.74671132  0.81203116  0.49444711    -0.19400
C2833       C  0.79895908  0.80220169  0.49691323    -0.20700
C2834       C  0.81518358  0.78243531  0.50362229    -0.19200
C2835       C  0.79519557  0.75142596  0.51500783     0.20000
C2836       C  0.75785098  0.73978240  0.51983476     0.02100
C2837       C  0.73840482  0.70737394  0.53074275    -0.14000
C2838       C  0.75598308  0.68878900  0.53744235    -0.11700
C2839       C  0.79340298  0.70180871  0.53359301     0.01600
C2840       C  0.81258137  0.73240919  0.52190857    -0.23900
H2841       H  0.66130127  0.76417326  0.51402634     0.09600
H2842       H  0.68804984  0.73027755  0.52761899     0.13200
H2843       H  0.76242694  0.83479548  0.48494492     0.11900
H2844       H  0.81506238  0.82580790  0.48793503     0.13100
H2845       H  0.84354920  0.79139582  0.49982032     0.12100
H2846       H  0.70971279  0.69588401  0.53447396     0.09200
H2847       H  0.74059405  0.66474356  0.54625885     0.12500
H2848       H  0.84154388  0.74245566  0.51890557     0.14400
C2849       C  0.70264335  0.90933741  0.49698590    -0.01200
C2850       C  0.73193124  0.91878196  0.50913341    -0.09200
C2851       C  0.75244038  0.95498767  0.51622617    -0.18000
C2852       C  0.74407831  0.98300759  0.51139848     0.04400
C2853       C  0.71282106  0.97254332  0.49994752     0.18600
C2854       C  0.69253521  0.93606608  0.49289131    -0.19400
C2855       C  0.70232695  0.99869621  0.49539851    -0.20700
C2856       C  0.72194612  0.53499844  0.50215374    -0.19200
C2857       C  0.75322437  0.54646527  0.51323698     0.20000
C2858       C  0.76525310  0.52083466  0.51765883     0.02100
C2859       C  0.79803648  0.53427485  0.52811096    -0.14000
C2860       C  0.81652731  0.57068148  0.53490010    -0.11700
C2861       C  0.80308823  0.59497445  0.53163490     0.01600
C2862       C  0.77208496  0.58314225  0.52029671    -0.23900
H2863       H  0.74008914  0.89852755  0.51249589     0.09600
H2864       H  0.77484165  0.96026900  0.52535965     0.13200
H2865       H  0.66949258  0.92870129  0.48366509     0.11900
H2866       H  0.67851333  0.99090856  0.48667583     0.13100
H2867       H  0.71265108  0.55430200  0.49862135     0.12100
H2868       H  0.80987196  0.51719787  0.53143720     0.09200
H2869       H  0.84071957  0.57950423  0.54348253     0.12500
H2870       H  0.76156108  0.60184106  0.51775122     0.14400
C2871       C  0.91021888  0.71141811  0.53362280    -0.01200
C2872       C  0.93545359  0.74892384  0.53757912    -0.09200
C2873       C  0.97185702  0.76636653  0.53098068    -0.18000
C2874       C  0.98437665  0.74661158  0.52020251     0.04400
C2875       C  0.95809459  0.70894775  0.51560726     0.18600
C2876       C  0.92138541  0.69187193  0.52221754    -0.19400
C2877       C  0.96885377  0.68819247  0.50483366    -0.20700
C2878       C  0.50512902  0.70387413  0.49853916    -0.19200
C2879       C  0.53171244  0.74070165  0.50289693     0.20000
C2880       C  0.52191045  0.76268082  0.51386671     0.02100
C2881       C  0.55015195  0.79971277  0.51791464    -0.14000
C2882       C  0.58593385  0.81471842  0.51058617    -0.11700
C2883       C  0.59470617  0.79339883  0.49907450     0.01600
C2884       C  0.56784692  0.75600774  0.49585940    -0.23900
H2885       H  0.92722857  0.76449197  0.54637731     0.09600
H2886       H  0.98970037  0.79508680  0.53483593     0.13200
H2887       H  0.90201250  0.66274013  0.51929341     0.11900
H2888       H  0.94906173  0.65953847  0.50127723     0.13100
H2889       H  0.51243275  0.68704363  0.49012935     0.12100
H2890       H  0.54521505  0.81805749  0.52633743     0.09200
H2891       H  0.60624744  0.84372983  0.51311200     0.12500
H2892       H  0.57464441  0.73937674  0.48698058     0.14400
loop_ 
_geom_bond_atom_site_label_1 
_geom_bond_atom_site_label_2 
_geom_bond_distance 
_geom_bond_site_symmetry_2 
_ccdc_geom_bond_type 
C1            H2   1.111       .  S
C1            C7   1.550       .  S
C1            C6   1.552       .  S
C1            C5   1.551       .  S
C3            H4   1.113       .  S
C3            C9   1.520       .  S
C3            C8   1.519       .  S
C3           C10   1.522       .  S
C5            C8   1.371       .  D
C5          C702   1.488       .  S
C6            C9   1.374       .  D
C6          C670   1.483       .  S
C7           C10   1.371       .  D
C7          C692   1.490       .  S
C8          C626   1.467       .  S
C9          C604   1.478       .  S
C10         C636   1.469       .  S
C11          H12   1.111       .  S
C11          C17   1.524       .  S
C11          C16   1.525       .  S
C11          C15   1.523       .  S
C13          H14   1.111       .  S
C13          C19   1.553       .  S
C13          C18   1.551       .  S
C13          C20   1.552       .  S
C15          C18   1.374       .  D
C15         C560   1.481       .  S
C16          C19   1.377       .  D
C16         C526   1.488       .  S
C17          C20   1.374       .  D
C17         C570   1.478       .  S
C18         C714   1.489       .  S
C19         C658   1.485       .  S
C20         C680   1.492       .  S
O21          C37   1.272       .  A
O21         Zn27   1.996       .  S
C22          O38   1.272       .  A
C22          O35   1.273       .  A
C22         C482   1.470       .  S
O23          C36   1.275       .  A
O23         Cd30   2.074       .  S
O24          C42   1.274       .  A
O24         Cd33   2.061       .  S
O25          C39   1.274       .  A
O25         Cd29   2.061       .  S
O26          C37   1.274       .  A
O26         Cd29   2.068       .  S
Zn27         O38   1.994       .  S
Zn27         O40   1.993       .  S
Zn27         O32   1.922       .  S
O28          C39   1.273       .  A
O28         Cd33   2.047       .  S
Cd29         O31   2.055       .  S
Cd29         O32   1.996       .  S
Cd30         O34   2.060       .  S
Cd30         O43   2.072       .  S
Cd30         O32   1.996       .  S
O31          C41   1.274       .  A
O32         Cd33   1.990       .  S
Cd33         O35   2.065       .  S
O34          C41   1.274       .  A
C36          O40   1.272       .  A
C36         C472   1.471       .  S
C37         C504   1.470       .  S
C39         C614   1.473       .  S
C41         C648   1.474       .  S
C42          O43   1.274       .  A
C42         C592   1.478       .  S
C44          H45   1.110       .  S
C44          C50   1.523   1_665  S
C44         C772   1.520   1_655  S
C44        C2217   1.524       .  S
C46          H47   1.111       .  S
C46          C53   1.547   1_665  S
C46         C775   1.551   1_655  S
C46        C2220   1.549       .  S
C48        C2213   1.524       .  S
C48          C51   1.374       .  D
C48         C460   1.482       .  S
C49         C767   1.520   1_455  S
C49          C52   1.375       .  D
C49         C516   1.478       .  S
C50          C53   1.375       .  D
C50         C494   1.484       .  S
C51        C2215   1.549       .  S
C51         C438   1.482       .  S
C52         C769   1.551   1_455  S
C52         C406   1.488       .  S
C53         C416   1.482       .  S
C54          H55   1.111       .  S
C54          C60   1.548       .  S
C54          C59   1.549       .  S
C54          C58   1.548       .  S
C56          H57   1.112       .  S
C56          C62   1.519       .  S
C56          C61   1.524       .  S
C56          C63   1.528       .  S
C58          C61   1.375       .  D
C58         C394   1.489       .  S
C59          C62   1.369       .  D
C59         C428   1.482       .  S
C60          C63   1.378       .  D
C60         C450   1.482       .  S
C61         C372   1.478       .  S
C62         C350   1.471       .  S
C63         C328   1.486       .  S
C64          H65   1.112       .  S
C64          C70   1.524       .  S
C64          C69   1.521       .  S
C64          C68   1.519       .  S
C66          H67   1.111       .  S
C66          C72   1.554       .  S
C66          C71   1.552       .  S
C66          C73   1.548       .  S
C68          C71   1.371       .  D
C68         C230   1.472       .  S
C69          C72   1.374       .  D
C69         C240   1.478       .  S
C70          C73   1.372       .  D
C70         C196   1.467       .  S
C71         C284   1.484       .  S
C72         C274   1.486       .  S
C73         C318   1.493       .  S
C74         H798   1.111       .  S
C74          C80   1.550       .  S
C74        C2248   1.554   1_445  S
C74        C1524   1.549   1_455  S
H75         C797   1.111       .  S
C76          H77   1.112       .  S
C76          C83   1.521       .  S
C76        C2251   1.524   1_445  S
C76        C1527   1.521   1_455  S
C78        C1520   1.549       .  S
C78          C81   1.370       .  D
C78         C262   1.487       .  S
C79        C2243   1.554       .  S
C79          C82   1.375       .  D
C79         C306   1.489       .  S
C80          C83   1.372       .  D
C80         C296   1.483       .  S
C81        C1522   1.521       .  S
C81         C186   1.467       .  S
C82        C2245   1.524       .  S
C82         C152   1.479       .  S
C83         C130   1.476       .  S
O84         C100   1.272       .  A
O84         Zn90   1.999       .  S
C85         O101   1.271       .  A
C85          O98   1.275       .  A
C85         C582   1.469       .  S
O86          C99   1.274       .  A
O86         Cd93   2.073       .  S
O87         C105   1.275       .  A
O87         Cd96   2.070       .  S
O88         C102   1.277       .  A
O88         Cd92   2.079       .  S
O89         C100   1.276       .  A
O89         Cd92   2.076       .  S
Zn90        O101   1.994       .  S
Zn90        O103   1.995       .  S
Zn90         O95   1.929       .  S
O91         C102   1.275       .  A
O91         Cd96   2.067       .  S
Cd92         O94   2.074       .  S
Cd92         O95   1.996       .  S
Cd93         O97   2.066       .  S
Cd93        O106   2.048       .  S
Cd93         O95   1.995       .  S
O94         C104   1.276       .  A
O95         Cd96   2.001       .  S
Cd96         O98   2.071       .  S
O97         C104   1.275       .  A
C99         O103   1.271       .  A
C99         C548   1.470       .  S
C100        C538   1.476       .  S
C102        C142   1.482       .  S
C104        C164   1.479       .  S
C105        O106   1.273       .  A
C105        C174   1.475       .  S
O107        C123   1.270       .  A
O107       Zn113   1.988       .  S
C108        O124   1.273       .  A
C108        O121   1.273       .  A
C108        C384   1.468       .  S
O109        C122   1.275   1_554  A
O109       Cd116   2.068       .  S
O110        C128   1.272       .  A
O110      Cd1565   2.048       .  S
O111        C125   1.275       .  A
O111       Cd115   2.066       .  S
O112        C123   1.275   1_554  A
O112       Cd115   2.079       .  S
Zn113       O847   2.009   1_545  S
Zn113      O2295   2.003   1_445  S
Zn113       O118   1.931   1_556  S
O114        C125   1.274       .  A
O114       Cd842   2.063   1_545  S
Cd115      O1563   2.076   1_455  S
Cd115       O118   1.999       .  S
Cd116       O129   2.059       .  S
Cd116       O843   2.067       .  S
Cd116      O2287   1.994       .  S
O117        C127   1.276       .  A
O117      Cd1561   2.076       .  S
O118      Cd2285   1.994   1_445  S
O118       Cd842   1.997   1_545  S
Cd119       O121   2.063   1_554  S
Cd119      O1556   2.048   1_455  S
Cd119       O837   2.063       .  S
Cd119       O841   1.997       .  S
O120        C127   1.275       .  A
O120       Cd839   2.067   1_545  S
C122        O126   1.272       .  A
C122        C340   1.471       .  S
C123        C362   1.459       .  S
O124       Zn836   2.009       .  S
C125        C218   1.477       .  S
O126      Zn2282   2.003       .  S
C127        C252   1.482       .  S
C128        O129   1.273       .  A
C128        C208   1.469       .  S
C130        C131   1.397       .  A
C130        C135   1.396       .  A
C131        C132   1.398       .  A
C131        H144   1.084       .  S
C132        C133   1.417       .  A
C132        H145   1.078       .  S
C133        C139   1.430       .  A
C133        C134   1.423       .  A
C134        C136   1.399       .  A
C134        C135   1.402       .  A
C135        H869   1.085   1_545  S
C136        C137   1.389       .  A
C136        H870   1.084   1_545  S
C137        C138   1.399       .  A
C137        H148   1.084       .  S
C138        C139   1.423       .  A
C138        C143   1.405       .  A
C139        C140   1.414       .  A
C140        C141   1.397       .  A
C140        H149   1.078       .  S
C141        C142   1.401       .  A
C141        H150   1.083       .  S
C142        C143   1.402       .  A
C143        H151   1.085       .  S
H146        C858   1.085       .  S
H147        C859   1.084       .  S
C152        C153   1.397       .  A
C152        C157   1.398       .  A
C153        C154   1.398       .  A
C153       H1612   1.084       .  S
C154        C155   1.417       .  A
C154        H167   1.077       .  S
C155        C161   1.430       .  A
C155        C156   1.422       .  A
C156        C158   1.399       .  A
C156        C157   1.403       .  A
C157        H168   1.085       .  S
C158        C159   1.390       .  A
C158        H169   1.084       .  S
C159        C160   1.399       .  A
C159        H170   1.084       .  S
C160        C161   1.423       .  A
C160        C165   1.405       .  A
C161        C162   1.414       .  A
C162        C163   1.396       .  A
C162        H171   1.077       .  S
C163        C164   1.401       .  A
C163        H172   1.083       .  S
C164        C165   1.401       .  A
C165        H173   1.085       .  S
H166       C1599   1.084       .  S
C174        C175   1.400       .  A
C174        C179   1.401       .  A
C175        C176   1.391       .  A
C175        H188   1.083       .  S
C176        C177   1.413       .  A
C176        H189   1.077       .  S
C177        C183   1.425       .  A
C177        C178   1.422       .  A
C178        C180   1.399       .  A
C178        C179   1.403       .  A
C179        H190   1.085       .  S
C180        C181   1.389       .  A
C180        H914   1.084       .  S
C181        C182   1.399       .  A
C181        H915   1.084       .  S
C182        C183   1.423       .  A
C182        C187   1.402       .  A
C183        C184   1.416       .  A
C184        C185   1.391       .  A
C184        H193   1.076       .  S
C185        C186   1.393       .  A
C185       H1640   1.084       .  S
C186        C187   1.395       .  A
C187        H918   1.085       .  S
H191        C903   1.084       .  S
H192        C904   1.084       .  S
H194       C1631   1.084   1_455  S
H195        C910   1.085       .  S
C196        C197   1.394       .  A
C196        C201   1.395       .  A
C197        C198   1.391       .  A
C197        H210   1.084       .  S
C198        C199   1.415       .  A
C198        H211   1.077       .  S
C199        C205   1.424       .  A
C199        C200   1.423       .  A
C200        C202   1.398       .  A
C200        C201   1.400       .  A
C201        H212   1.085       .  S
C202        C203   1.388       .  A
C202        H213   1.084       .  S
C203        C204   1.399       .  A
C203        H214   1.084       .  S
C204        C205   1.422       .  A
C204        C209   1.400       .  A
C205        C206   1.414       .  A
C206        C207   1.392       .  A
C206        H215   1.077       .  S
C207        C208   1.399       .  A
C207        H216   1.083       .  S
C208        C209   1.399       .  A
C209        H217   1.085       .  S
C218        C219   1.401       .  A
C218        C223   1.401       .  A
C219        C220   1.395       .  A
C219        H232   1.083       .  S
C220        C221   1.414       .  A
C220        H233   1.078       .  S
C221        C227   1.427       .  A
C221        C222   1.422       .  A
C222        C224   1.399       .  A
C222        C223   1.403       .  A
C223        H234   1.085       .  S
C224        C225   1.389       .  A
C224        H235   1.084       .  S
C225        C226   1.398       .  A
C225        H236   1.084       .  S
C226        C227   1.423       .  A
C226        C231   1.401       .  A
C227        C228   1.416       .  A
C228        C229   1.395       .  A
C228        H237   1.078       .  S
C229        C230   1.396       .  A
C229        H238   1.084       .  S
C230        C231   1.395       .  A
C231        H239   1.085       .  S
C240        C241   1.397       .  A
C240        C245   1.397       .  A
C241        C242   1.396       .  A
C241        H254   1.084       .  S
C242        C243   1.415       .  A
C242        H255   1.077       .  S
C243        C249   1.430       .  A
C243        C244   1.424       .  A
C244        C246   1.399       .  A
C244        C245   1.405       .  A
C245        H256   1.085       .  S
C246        C247   1.390       .  A
C246        H257   1.084       .  S
C247        C248   1.400       .  A
C247       H1704   1.084       .  S
C248        C249   1.422       .  A
C248        C253   1.405       .  A
C249        C250   1.415       .  A
C250        C251   1.397       .  A
C250        H259   1.078       .  S
C251        C252   1.401       .  A
C251        H260   1.083       .  S
C252        C253   1.402       .  A
C253        H261   1.085       .  S
H258       C1693   1.084       .  S
C262        C263   1.401       .  A
C262        C267   1.399       .  A
C263        C264   1.397       .  A
C263       H1722   1.084       .  S
C264        C265   1.414       .  A
C264        H277   1.078       .  S
C265        C271   1.434       .  A
C265        C266   1.425       .  A
C266        C268   1.399       .  A
C266        C267   1.411       .  A
C267       H1001   1.085   1_545  S
C268        C269   1.392       .  A
C268       H1002   1.084   1_545  S
C269        C270   1.400       .  A
C269        H280   1.084       .  S
C270        C271   1.422       .  A
C270        C275   1.406       .  A
C271        C272   1.419       .  A
C272        C273   1.401       .  A
C272        H281   1.078       .  S
C273        C274   1.397       .  A
C273        H282   1.084       .  S
C274        C275   1.402       .  A
C275        H283   1.085       .  S
H276       C1709   1.084   1_455  S
H278        C990   1.085       .  S
H279        C991   1.084       .  S
C284        C285   1.394       .  A
C284        C289   1.404       .  A
C285        C286   1.398       .  A
C285        H298   1.084       .  S
C286        C287   1.418       .  A
C286        H299   1.077       .  S
C287        C293   1.431       .  A
C287        C288   1.421       .  A
C288        C290   1.402       .  A
C288        C289   1.407       .  A
C289        H300   1.085       .  S
C290        C291   1.394       .  A
C290        H301   1.084       .  S
C291        C292   1.401       .  A
C291        H302   1.084       .  S
C292        C293   1.425       .  A
C292        C297   1.412       .  A
C293        C294   1.413       .  A
C294        C295   1.393       .  A
C294        H303   1.077       .  S
C295        C296   1.398       .  A
C295        H304   1.084   1_545  S
C296        C297   1.401       .  A
C297        H305   1.084       .  S
C306        C307   1.397       .  A
C306        C311   1.403       .  A
C307        C308   1.402       .  A
C307        H320   1.084       .  S
C308        C309   1.419       .  A
C308        H321   1.078       .  S
C309        C315   1.435       .  A
C309        C310   1.422       .  A
C310        C312   1.401       .  A
C310        C311   1.408       .  A
C311        H322   1.085       .  S
C312        C313   1.393       .  A
C312        H323   1.084       .  S
C313        C314   1.400       .  A
C313        H324   1.084       .  S
C314        C315   1.425       .  A
C314        C319   1.413       .  A
C315        C316   1.414       .  A
C316        C317   1.398       .  A
C316        H325   1.078       .  S
C317        C318   1.401       .  A
C317        H326   1.083       .  S
C318        C319   1.401       .  A
C319        H327   1.085       .  S
C328        C329   1.400       .  A
C328        C333   1.399       .  A
C329        C330   1.393       .  A
C329        H342   1.081       .  S
C330        C331   1.412       .  A
C330        H343   1.078       .  S
C331        C337   1.425       .  A
C331        C332   1.421       .  A
C332        C334   1.399       .  A
C332        C333   1.402       .  A
C333        H344   1.079       .  S
C334        C335   1.390       .  A
C334        H345   1.085       .  S
C335        C336   1.400       .  A
C335        H346   1.084       .  S
C336        C337   1.421       .  A
C336        C341   1.403       .  A
C337        C338   1.414       .  A
C338        C339   1.394       .  A
C338        H347   1.078       .  S
C339        C340   1.398       .  A
C339        H348   1.083       .  S
C340        C341   1.401       .  A
C341        H349   1.085       .  S
C350        C351   1.394       .  A
C350        C355   1.397       .  A
C351        C352   1.392       .  A
C351        H364   1.083       .  S
C352        C353   1.415       .  A
C352        H365   1.076       .  S
C353        C359   1.426       .  A
C353        C354   1.423       .  A
C354        C356   1.400       .  A
C354        C355   1.404       .  A
C355        H366   1.084       .  S
C356        C357   1.391       .  A
C356        H367   1.083       .  S
C357        C358   1.400       .  A
C357       H1814   1.084       .  S
C358        C359   1.423       .  A
C358        C363   1.404       .  A
C359        C360   1.415       .  A
C360        C361   1.393       .  A
C360        H369   1.077       .  S
C361        C362   1.394       .  A
C361        H370   1.084       .  S
C362        C363   1.397       .  A
C363        H371   1.085       .  S
H368       C1803   1.084       .  S
C372        C373   1.397       .  A
C372        C377   1.399       .  A
C373        C374   1.392       .  A
C373        H386   1.083       .  S
C374        C375   1.415       .  A
C374        H387   1.077       .  S
C375        C381   1.425       .  A
C375        C376   1.422       .  A
C376        C378   1.399       .  A
C376        C377   1.402       .  A
C377        H388   1.085       .  S
C378        C379   1.390       .  A
C378        H389   1.084       .  S
C379        C380   1.400       .  A
C379        H390   1.084       .  S
C380        C381   1.423       .  A
C380        C385   1.404       .  A
C381        C382   1.414       .  A
C382        C383   1.393       .  A
C382        H391   1.077       .  S
C383        C384   1.397       .  A
C383        H392   1.084       .  S
C384        C385   1.399       .  A
C385        H393   1.085       .  S
C394        C395   1.398       .  A
C394        C399   1.402       .  A
C395        C396   1.403       .  A
C395        H408   1.083       .  S
C396        C397   1.419       .  A
C396        H409   1.078       .  S
C397        C403   1.435       .  A
C397        C398   1.422       .  A
C398        C400   1.400       .  A
C398        C399   1.405       .  A
C399        H410   1.085       .  S
C400        C401   1.391       .  A
C400        H411   1.084       .  S
C401        C402   1.399       .  A
C401       H1858   1.084   1_455  S
C402        C403   1.425       .  A
C402        C407   1.410       .  A
C403        C404   1.415       .  A
C404        C405   1.399       .  A
C404        H413   1.078       .  S
C405        C406   1.402       .  A
C405       H1137   1.084       .  S
C406        C407   1.398       .  A
C407       H1861   1.085   1_455  S
H412       C1847   1.084       .  S
H414       C1128   1.084   1_545  S
H415       C1853   1.085       .  S
C416        C417   1.399       .  A
C416        C421   1.399       .  A
C417        C418   1.396       .  A
C417       H1876   1.084   1_455  S
C418        C419   1.414       .  A
C418        H431   1.077       .  S
C419        C425   1.432       .  A
C419        C420   1.425       .  A
C420        C422   1.399       .  A
C420        C421   1.409       .  A
C421        H432   1.085       .  S
C422        C423   1.391       .  A
C422        H433   1.084       .  S
C423        C424   1.400       .  A
C423        H434   1.084       .  S
C424        C425   1.422       .  A
C424        C429   1.404       .  A
C425        C426   1.418       .  A
C426        C427   1.400       .  A
C426        H435   1.078       .  S
C427        C428   1.396       .  A
C427        H436   1.083       .  S
C428        C429   1.401       .  A
C429        H437   1.084       .  S
H430       C1863   1.084       .  S
C438        C439   1.399       .  A
C438        C443   1.401       .  A
C439        C440   1.400       .  A
C439       H1175   1.084       .  S
C440        C441   1.415       .  A
C440        H453   1.079       .  S
C441        C447   1.430       .  A
C441        C442   1.422       .  A
C442        C444   1.401       .  A
C442        C443   1.408       .  A
C443        H454   1.085       .  S
C444        C445   1.393       .  A
C444        H455   1.084       .  S
C445        C446   1.400       .  A
C445        H456   1.084       .  S
C446        C447   1.422       .  A
C446        C451   1.408       .  A
C447        C448   1.415       .  A
C448        C449   1.399       .  A
C448        H457   1.079       .  S
C449        C450   1.398       .  A
C449        H458   1.083       .  S
C450        C451   1.400       .  A
C451        H459   1.085       .  S
H452       C1162   1.084   1_545  S
C460        C461   1.399       .  A
C460        C465   1.399       .  A
C461        C462   1.393       .  A
C461        H474   1.084       .  S
C462        C463   1.413       .  A
C462        H475   1.078       .  S
C463        C469   1.426       .  A
C463        C464   1.422       .  A
C464        C466   1.399       .  A
C464        C465   1.403       .  A
C465       H1199   1.081       .  S
C466        C467   1.389       .  A
C466       H1200   1.084       .  S
C467        C468   1.399       .  A
C467        H478   1.084       .  S
C468        C469   1.421       .  A
C468        C473   1.402       .  A
C469        C470   1.416       .  A
C470        C471   1.396       .  A
C470        H479   1.078       .  S
C471        C472   1.398       .  A
C471        H480   1.083       .  S
C472        C473   1.400       .  A
C473        H481   1.085       .  S
H476       C1188   1.081       .  S
H477       C1189   1.084       .  S
C482        C483   1.399       .  A
C482        C487   1.399       .  A
C483        C484   1.392       .  A
C483        H496   1.084       .  S
C484        C485   1.413       .  A
C484        H497   1.078       .  S
C485        C491   1.424       .  A
C485        C486   1.423       .  A
C486        C488   1.399       .  A
C486        C487   1.403       .  A
C487        H498   1.085       .  S
C488        C489   1.389       .  A
C488        H499   1.084       .  S
C489        C490   1.399       .  A
C489       H1946   1.084   1_455  S
C490        C491   1.421       .  A
C490        C495   1.401       .  A
C491        C492   1.414       .  A
C492        C493   1.393       .  A
C492        H501   1.078       .  S
C493        C494   1.400       .  A
C493        H502   1.081       .  S
C494        C495   1.400       .  A
C495       H1949   1.085   1_455  S
H500       C1935   1.084       .  S
H503       C1941   1.085       .  S
C504        C505   1.398       .  A
C504        C509   1.399       .  A
C505        C506   1.395       .  A
C505        H518   1.083       .  S
C506        C507   1.416       .  A
C506        H519   1.077       .  S
C507        C513   1.425       .  A
C507        C508   1.421       .  A
C508        C510   1.399       .  A
C508        C509   1.400       .  A
C509        H520   1.085       .  S
C510        C511   1.388       .  A
C510        H521   1.084       .  S
C511        C512   1.398       .  A
C511        H522   1.084       .  S
C512        C513   1.423       .  A
C512        C517   1.401       .  A
C513        C514   1.412       .  A
C514        C515   1.391       .  A
C514        H523   1.078       .  S
C515        C516   1.399       .  A
C515        H524   1.084       .  S
C516        C517   1.397       .  A
C517        H525   1.084       .  S
C526        C527   1.400       .  A
C526        C531   1.403       .  A
C527        C528   1.392       .  A
C527        H540   1.084       .  S
C528        C529   1.411       .  A
C528        H541   1.078       .  S
C529        C535   1.425       .  A
C529        C530   1.421       .  A
C530        C532   1.400       .  A
C530        C531   1.406       .  A
C531        H542   1.083       .  S
C532        C533   1.393       .  A
C532        H543   1.084       .  S
C533        C534   1.401       .  A
C533        H544   1.084       .  S
C534        C535   1.420       .  A
C534        C539   1.405       .  A
C535        C536   1.414       .  A
C536        C537   1.394       .  A
C536        H545   1.078       .  S
C537        C538   1.399       .  A
C537        H546   1.083       .  S
C538        C539   1.404       .  A
C539        H547   1.085       .  S
C548        C549   1.398       .  A
C548        C553   1.398       .  A
C549        C550   1.393       .  A
C549        H562   1.084       .  S
C550       C1997   1.414       .  A
C550        H563   1.077       .  S
C551        C557   1.426       .  A
C551        C552   1.423       .  A
C551       C1996   1.414   1_455  A
C552        C554   1.399       .  A
C552       C1999   1.404   1_455  A
C553       C1998   1.404       .  A
C553        H564   1.085       .  S
C554        C555   1.389       .  A
C554        H565   1.084       .  S
C555        C556   1.399       .  A
C555        H566   1.084       .  S
C556        C557   1.421       .  A
C556        C561   1.401       .  A
C557        C558   1.415       .  A
C558        C559   1.394       .  A
C558        H567   1.077       .  S
C559        C560   1.398       .  A
C559        H568   1.083       .  S
C560        C561   1.399       .  A
C561        H569   1.085       .  S
C570        C571   1.397       .  A
C570        C575   1.399       .  A
C571        C572   1.391       .  A
C571        H584   1.084       .  S
C572        C573   1.413       .  A
C572        H585   1.077       .  S
C573        C579   1.424       .  A
C573        C574   1.423       .  A
C574        C576   1.399       .  A
C574        C575   1.402       .  A
C575        H586   1.084       .  S
C576       C1300   1.390       .  A
C576        H587   1.084       .  S
C577        C578   1.400       .  A
C577       C1299   1.390   1_545  A
C577        H588   1.084       .  S
C578        C583   1.402       .  A
C578       C1302   1.421   1_545  A
C579       C1301   1.421       .  A
C579       C1303   1.415       .  A
C580        C581   1.394   1_565  A
C580       C1302   1.415       .  A
C580       H1312   1.077       .  S
C581        C582   1.397       .  A
C581        H590   1.084       .  S
C582        C583   1.401       .  A
C583        H591   1.085       .  S
H589       C1303   1.077       .  S
C592        C593   1.399       .  A
C592        C597   1.403       .  A
C593        C594   1.393       .  A
C593        H606   1.083       .  S
C594        C595   1.413       .  A
C594        H607   1.077       .  S
C595        C601   1.428       .  A
C595        C596   1.422       .  A
C596        C598   1.400       .  A
C596        C597   1.406       .  A
C597        H608   1.085       .  S
C598        C599   1.391       .  A
C598        H609   1.084       .  S
C599        C600   1.400       .  A
C599        H610   1.084       .  S
C600        C601   1.423       .  A
C600        C605   1.405       .  A
C601        C602   1.415       .  A
C602        C603   1.394       .  A
C602        H611   1.077       .  S
C603        C604   1.395       .  A
C603        H612   1.084       .  S
C604        C605   1.399       .  A
C605        H613   1.085       .  S
C614        C615   1.400       .  A
C614        C619   1.401       .  A
C615        C616   1.391       .  A
C615        H628   1.083       .  S
C616       C2063   1.412   1_455  A
C616        H629   1.077       .  S
C617        C623   1.424       .  A
C617        C618   1.422       .  A
C617       C2062   1.412       .  A
C618        C620   1.399       .  A
C618       C2065   1.402       .  A
C619       C2064   1.402   1_455  A
C619        H630   1.084       .  S
C620        C621   1.389       .  A
C620        H631   1.084       .  S
C621        C622   1.399       .  A
C621        H632   1.084       .  S
C622        C623   1.422       .  A
C622        C627   1.400       .  A
C623        C624   1.416       .  A
C624        C625   1.393       .  A
C624        H633   1.077       .  S
C625        C626   1.394       .  A
C625        H634   1.084       .  S
C626        C627   1.395       .  A
C627        H635   1.085       .  S
C636        C637   1.395       .  A
C636        C641   1.395       .  A
C637        C638   1.393       .  A
C637        H650   1.084       .  S
C638        C639   1.415       .  A
C638        H651   1.077       .  S
C639        C645   1.424       .  A
C639        C640   1.423       .  A
C640        C642   1.398       .  A
C640        C641   1.401       .  A
C641        H652   1.085       .  S
C642        C643   1.389       .  A
C642        H653   1.084       .  S
C643        C644   1.399   1_545  A
C643        H654   1.084       .  S
C644        C645   1.422   1_565  A
C644       C1372   1.401       .  A
C645       C1369   1.414   1_545  A
C646        C647   1.393       .  A
C646       C1368   1.414       .  A
C646        H655   1.077       .  S
C647        C648   1.400       .  A
C647        H656   1.084       .  S
C648        C649   1.401       .  A
C649       C1367   1.401       .  A
C649        H657   1.084       .  S
C658        C659   1.397       .  A
C658        C663   1.402       .  A
C659        C660   1.399       .  A
C659        H672   1.083       .  S
C660        C661   1.418       .  A
C660        H673   1.078       .  S
C661        C667   1.432       .  A
C661        C662   1.422       .  A
C662        C664   1.400       .  A
C662        C663   1.405       .  A
C663        H674   1.085       .  S
C664        C665   1.391       .  A
C664        H675   1.084       .  S
C665        C666   1.399       .  A
C665        H676   1.084       .  S
C666        C667   1.425       .  A
C666        C671   1.409       .  A
C667        C668   1.414       .  A
C668        C669   1.395       .  A
C668        H677   1.077       .  S
C669        C670   1.400       .  A
C669        H678   1.084       .  S
C670        C671   1.397       .  A
C671        H679   1.085       .  S
C680        C681   1.397       .  A
C680        C685   1.405       .  A
C681        C682   1.401       .  A
C681        H694   1.083       .  S
C682        C683   1.418       .  A
C682        H695   1.078       .  S
C683        C684   1.421       .  A
C683       C1412   1.434       .  A
C684        C686   1.401       .  A
C684        C685   1.408       .  A
C685        H696   1.085       .  S
C686       C1410   1.394       .  A
C686        H697   1.084       .  S
C687        C688   1.400       .  A
C687       C1409   1.394   1_545  A
C687        H698   1.084       .  S
C688        C689   1.425       .  A
C688        C693   1.413       .  A
C689        C690   1.413       .  A
C689       C1406   1.434   1_545  A
C690        C691   1.397       .  A
C690        H699   1.077       .  S
C691        C692   1.401       .  A
C691        H700   1.084       .  S
C692        C693   1.400       .  A
C693        H701   1.085       .  S
C702        C703   1.401       .  A
C702        C707   1.398       .  A
C703        C704   1.399       .  A
C703        H716   1.084       .  S
C704        C705   1.415       .  A
C704        H717   1.077       .  S
C705        C706   1.425       .  A
C705       C2157   1.435       .  A
C706        C708   1.399       .  A
C706        C707   1.410       .  A
C707        H718   1.084       .  S
C708       C2155   1.391       .  A
C708        H719   1.084       .  S
C709        C710   1.400       .  A
C709       C2154   1.391   1_455  A
C709        H720   1.084       .  S
C710        C711   1.422       .  A
C710        C715   1.406       .  A
C711        C712   1.419       .  A
C711       C2151   1.435   1_455  A
C712        C713   1.403       .  A
C712        H721   1.078       .  S
C713        C714   1.398       .  A
C713        H722   1.083       .  S
C714        C715   1.402       .  A
C715        H723   1.085       .  S
C724        H725   1.111       .  S
C724        C730   1.550       .  S
C724        C729   1.552       .  S
C724        C728   1.551       .  S
C726        H727   1.113       .  S
C726        C732   1.520       .  S
C726        C731   1.519       .  S
C726        C733   1.522       .  S
C728        C731   1.371       .  D
C728       C1425   1.488       .  S
C729        C732   1.374       .  D
C729       C1393   1.483       .  S
C730        C733   1.371       .  D
C730       C1415   1.490       .  S
C731       C1349   1.467       .  S
C732       C1327   1.478       .  S
C733       C1359   1.469       .  S
C734        H735   1.111       .  S
C734        C740   1.524       .  S
C734        C739   1.525       .  S
C734        C738   1.523       .  S
C736        H737   1.111       .  S
C736        C742   1.553       .  S
C736        C741   1.551       .  S
C736        C743   1.552       .  S
C738        C741   1.374       .  D
C738       C1283   1.481       .  S
C739        C742   1.377       .  D
C739       C1249   1.488       .  S
C740        C743   1.374       .  D
C740       C1293   1.478       .  S
C741       C1437   1.489       .  S
C742       C1381   1.485       .  S
C743       C1403   1.492       .  S
O744        C760   1.272       .  A
O744       Zn750   1.996       .  S
C745        O761   1.272       .  A
C745        O758   1.273       .  A
C745       C1205   1.470       .  S
O746        C759   1.275       .  A
O746       Cd753   2.074       .  S
O747        C765   1.274       .  A
O747       Cd756   2.061       .  S
O748        C762   1.274       .  A
O748       Cd752   2.061       .  S
O749        C760   1.274       .  A
O749       Cd752   2.068       .  S
Zn750       O761   1.994       .  S
Zn750       O763   1.993       .  S
Zn750       O755   1.922       .  S
O751        C762   1.273       .  A
O751       Cd756   2.047       .  S
Cd752       O754   2.055       .  S
Cd752       O755   1.996       .  S
Cd753       O757   2.060       .  S
Cd753       O766   2.072       .  S
Cd753       O755   1.996       .  S
O754        C764   1.274       .  A
O755       Cd756   1.990       .  S
Cd756       O758   2.065       .  S
O757        C764   1.274       .  A
C759        O763   1.272       .  A
C759       C1195   1.471       .  S
C760       C1227   1.470       .  S
C762       C1337   1.473       .  S
C764       C1371   1.474       .  S
C765        O766   1.274       .  A
C765       C1315   1.478       .  S
C767        H768   1.110       .  S
C767        C773   1.523   1_655  S
C767       C1494   1.524       .  S
C769        H770   1.111       .  S
C769       C1497   1.549       .  S
C769        C776   1.547   1_655  S
C771       C1490   1.524       .  S
C771        C774   1.374       .  D
C771       C1183   1.482       .  S
C772        C775   1.375       .  D
C772       C1239   1.478       .  S
C773        C776   1.375       .  D
C773       C1217   1.484       .  S
C774       C1492   1.549       .  S
C774       C1161   1.482       .  S
C775       C1129   1.488       .  S
C776       C1139   1.482       .  S
C777        H778   1.111       .  S
C777        C783   1.548       .  S
C777        C782   1.549       .  S
C777        C781   1.548       .  S
C779        H780   1.112       .  S
C779        C785   1.519       .  S
C779        C784   1.524       .  S
C779        C786   1.528       .  S
C781        C784   1.375       .  D
C781       C1117   1.489       .  S
C782        C785   1.369       .  D
C782       C1151   1.482       .  S
C783        C786   1.378       .  D
C783       C1173   1.482       .  S
C784       C1095   1.478       .  S
C785       C1073   1.471       .  S
C786       C1051   1.486       .  S
C787        H788   1.112       .  S
C787        C793   1.524       .  S
C787        C792   1.521       .  S
C787        C791   1.519       .  S
C789        H790   1.111       .  S
C789        C795   1.554       .  S
C789        C794   1.552       .  S
C789        C796   1.548       .  S
C791        C794   1.371       .  D
C791        C953   1.472       .  S
C792        C795   1.374       .  D
C792        C963   1.478       .  S
C793        C796   1.372       .  D
C793        C919   1.467       .  S
C794       C1007   1.484       .  S
C795        C997   1.486       .  S
C796       C1041   1.493       .  S
C797        C803   1.550       .  S
C797       C1525   1.554   1_455  S
C797       C2247   1.549   1_455  S
C799        H800   1.112       .  S
C799       C1528   1.524   1_455  S
C799       C2250   1.521   1_455  S
C799        C806   1.521       .  S
C801       C2243   1.549       .  S
C801        C804   1.370       .  D
C801        C985   1.487       .  S
C802       C1520   1.554   1_565  S
C802        C805   1.375       .  D
C802       C1029   1.489       .  S
C803        C806   1.372       .  D
C803       C1019   1.483       .  S
C804       C2245   1.521       .  S
C804        C909   1.467       .  S
C805       C1522   1.524   1_565  S
C805        C875   1.479       .  S
C806        C853   1.476       .  S
O807        C823   1.272       .  A
O807       Zn813   1.999       .  S
C808        O824   1.271       .  A
C808        O821   1.275       .  A
C808       C1305   1.469       .  S
O809        C822   1.274       .  A
O809       Cd816   2.073       .  S
O810        C828   1.275       .  A
O810       Cd819   2.070       .  S
O811        C825   1.277       .  A
O811       Cd815   2.079       .  S
O812        C823   1.276       .  A
O812       Cd815   2.076       .  S
Zn813       O824   1.994       .  S
Zn813       O826   1.995       .  S
Zn813       O818   1.929       .  S
O814        C825   1.275       .  A
O814       Cd819   2.067       .  S
Cd815       O817   2.074       .  S
Cd815       O818   1.996       .  S
Cd816       O820   2.066       .  S
Cd816       O829   2.048       .  S
Cd816       O818   1.995       .  S
O817        C827   1.276       .  A
O818       Cd819   2.001       .  S
Cd819       O821   2.071       .  S
O820        C827   1.275       .  A
C822        O826   1.271       .  A
C822       C1271   1.470       .  S
C823       C1261   1.476       .  S
C825        C865   1.482       .  S
C827        C887   1.479       .  S
C828        O829   1.273       .  A
C828        C897   1.475       .  S
O830        C846   1.270       .  A
O830       Zn836   1.988       .  S
C831        O847   1.273       .  A
C831        O844   1.273       .  A
C831       C1107   1.468       .  S
O832        C845   1.275   1_554  A
O832       Cd839   2.068       .  S
O833        C851   1.272       .  A
O833      Cd2288   2.048       .  S
O834        C848   1.275       .  A
O834       Cd838   2.066       .  S
O835        C846   1.275   1_554  A
O835       Cd838   2.079       .  S
Zn836      O1572   2.003   1_455  S
Zn836       O841   1.931   1_556  S
O837        C848   1.274       .  A
Cd838      O2286   2.076   1_455  S
Cd838       O841   1.999       .  S
Cd839       O852   2.059       .  S
Cd839      O1564   1.994   1_565  S
O840        C850   1.276       .  A
O840      Cd2284   2.076       .  S
O841      Cd1562   1.994   1_455  S
Cd842      O2279   2.048   1_455  S
Cd842       O844   2.063   1_554  S
O843        C850   1.275       .  A
C845        O849   1.272       .  A
C845       C1063   1.471       .  S
C846       C1085   1.459       .  S
C848        C941   1.477       .  S
O849      Zn1559   2.003   1_565  S
C850        C975   1.482       .  S
C851        O852   1.273       .  A
C851        C931   1.469       .  S
C853        C854   1.397       .  A
C853        C858   1.396       .  A
C854        C855   1.398       .  A
C854        H867   1.084       .  S
C855        C856   1.417       .  A
C855        H868   1.078       .  S
C856        C862   1.430       .  A
C856        C857   1.423       .  A
C857        C859   1.399       .  A
C857        C858   1.402       .  A
C859        C860   1.389       .  A
C860        C861   1.399       .  A
C860        H871   1.084       .  S
C861        C862   1.423       .  A
C861        C866   1.405       .  A
C862        C863   1.414       .  A
C863        C864   1.397       .  A
C863        H872   1.078       .  S
C864        C865   1.401       .  A
C864        H873   1.083       .  S
C865        C866   1.402       .  A
C866        H874   1.085       .  S
C875        C876   1.397       .  A
C875        C880   1.398       .  A
C876        C877   1.398       .  A
C876       H2335   1.084       .  S
C877        C878   1.417       .  A
C877        H890   1.077       .  S
C878        C884   1.430       .  A
C878        C879   1.422       .  A
C879        C881   1.399       .  A
C879        C880   1.403       .  A
C880        H891   1.085       .  S
C881        C882   1.390       .  A
C881        H892   1.084       .  S
C882        C883   1.399       .  A
C882        H893   1.084       .  S
C883        C884   1.423       .  A
C883        C888   1.405       .  A
C884        C885   1.414       .  A
C885        C886   1.396       .  A
C885        H894   1.077       .  S
C886        C887   1.401       .  A
C886        H895   1.083       .  S
C887        C888   1.401       .  A
C888        H896   1.085       .  S
H889       C2322   1.084       .  S
C897        C898   1.400       .  A
C897        C902   1.401       .  A
C898        C899   1.391       .  A
C898        H911   1.083       .  S
C899        C900   1.413       .  A
C899        H912   1.077       .  S
C900        C906   1.425       .  A
C900        C901   1.422       .  A
C901        C903   1.399       .  A
C901        C902   1.403       .  A
C902        H913   1.085       .  S
C903        C904   1.389       .  A
C904        C905   1.399       .  A
C905        C906   1.423       .  A
C905        C910   1.402       .  A
C906        C907   1.416       .  A
C907        C908   1.391       .  A
C907        H916   1.076       .  S
C908        C909   1.393       .  A
C908       H2363   1.084       .  S
C909        C910   1.395       .  A
H917       C2354   1.084   1_455  S
C919        C920   1.394       .  A
C919        C924   1.395       .  A
C920        C921   1.391       .  A
C920        H933   1.084       .  S
C921        C922   1.415       .  A
C921        H934   1.077       .  S
C922        C928   1.424       .  A
C922        C923   1.423       .  A
C923        C925   1.398       .  A
C923        C924   1.400       .  A
C924        H935   1.085       .  S
C925        C926   1.388       .  A
C925        H936   1.084       .  S
C926        C927   1.399       .  A
C926        H937   1.084       .  S
C927        C928   1.422       .  A
C927        C932   1.400       .  A
C928        C929   1.414       .  A
C929        C930   1.392       .  A
C929        H938   1.077       .  S
C930        C931   1.399       .  A
C930        H939   1.083       .  S
C931        C932   1.399       .  A
C932        H940   1.085       .  S
C941        C942   1.401       .  A
C941        C946   1.401       .  A
C942        C943   1.395       .  A
C942        H955   1.083       .  S
C943        C944   1.414       .  A
C943        H956   1.078       .  S
C944        C950   1.427       .  A
C944        C945   1.422       .  A
C945        C947   1.399       .  A
C945        C946   1.403       .  A
C946        H957   1.085       .  S
C947        C948   1.389       .  A
C947        H958   1.084       .  S
C948        C949   1.398       .  A
C948        H959   1.084       .  S
C949        C950   1.423       .  A
C949        C954   1.401       .  A
C950        C951   1.416       .  A
C951        C952   1.395       .  A
C951        H960   1.078       .  S
C952        C953   1.396       .  A
C952        H961   1.084       .  S
C953        C954   1.395       .  A
C954        H962   1.085       .  S
C963        C964   1.397       .  A
C963        C968   1.397       .  A
C964        C965   1.396       .  A
C964        H977   1.084       .  S
C965        C966   1.415       .  A
C965        H978   1.077       .  S
C966        C972   1.430       .  A
C966        C967   1.424       .  A
C967        C969   1.399       .  A
C967        C968   1.405       .  A
C968        H979   1.085       .  S
C969        C970   1.390       .  A
C969        H980   1.084       .  S
C970        C971   1.400       .  A
C970       H2427   1.084       .  S
C971        C972   1.422       .  A
C971        C976   1.405       .  A
C972        C973   1.415       .  A
C973        C974   1.397       .  A
C973        H982   1.078       .  S
C974        C975   1.401       .  A
C974        H983   1.083       .  S
C975        C976   1.402       .  A
C976        H984   1.085       .  S
H981       C2416   1.084       .  S
C985        C986   1.401       .  A
C985        C990   1.399       .  A
C986        C987   1.397       .  A
C986       H2445   1.084       .  S
C987        C988   1.414       .  A
C987       H1000   1.078       .  S
C988        C994   1.434       .  A
C988        C989   1.425       .  A
C989        C991   1.399       .  A
C989        C990   1.411       .  A
C991        C992   1.392       .  A
C992        C993   1.400       .  A
C992       H1003   1.084       .  S
C993        C994   1.422       .  A
C993        C998   1.406       .  A
C994        C995   1.419       .  A
C995        C996   1.401       .  A
C995       H1004   1.078       .  S
C996        C997   1.397       .  A
C996       H1005   1.084       .  S
C997        C998   1.402       .  A
C998       H1006   1.085       .  S
H999       C2432   1.084   1_455  S
C1007      C1008   1.394       .  A
C1007      C1012   1.404       .  A
C1008      C1009   1.398       .  A
C1008      H1021   1.084       .  S
C1009      C1010   1.418       .  A
C1009      H1022   1.077       .  S
C1010      C1016   1.431       .  A
C1010      C1011   1.421       .  A
C1011      C1013   1.402       .  A
C1011      C1012   1.407       .  A
C1012      H1023   1.085       .  S
C1013      C1014   1.394       .  A
C1013      H1024   1.084       .  S
C1014      C1015   1.401       .  A
C1014      H1025   1.084       .  S
C1015      C1016   1.425       .  A
C1015      C1020   1.412       .  A
C1016      C1017   1.413       .  A
C1017      C1018   1.393       .  A
C1017      H1026   1.077       .  S
C1018      C1019   1.398       .  A
C1018      H1027   1.084       .  S
C1019      C1020   1.401       .  A
C1020      H1028   1.084       .  S
C1029      C1030   1.397       .  A
C1029      C1034   1.403       .  A
C1030      C1031   1.402       .  A
C1030      H1043   1.084       .  S
C1031      C1032   1.419       .  A
C1031      H1044   1.078       .  S
C1032      C1038   1.435       .  A
C1032      C1033   1.422       .  A
C1033      C1035   1.401       .  A
C1033      C1034   1.408       .  A
C1034      H1045   1.085       .  S
C1035      C1036   1.393       .  A
C1035      H1046   1.084       .  S
C1036      C1037   1.400       .  A
C1036      H1047   1.084       .  S
C1037      C1038   1.425       .  A
C1037      C1042   1.413       .  A
C1038      C1039   1.414       .  A
C1039      C1040   1.398       .  A
C1039      H1048   1.078       .  S
C1040      C1041   1.401       .  A
C1040      H1049   1.083       .  S
C1041      C1042   1.401       .  A
C1042      H1050   1.085       .  S
C1051      C1052   1.400       .  A
C1051      C1056   1.399       .  A
C1052      C1053   1.393       .  A
C1052      H1065   1.081       .  S
C1053      C1054   1.412       .  A
C1053      H1066   1.078       .  S
C1054      C1060   1.425       .  A
C1054      C1055   1.421       .  A
C1055      C1057   1.399       .  A
C1055      C1056   1.402       .  A
C1056      H1067   1.079       .  S
C1057      C1058   1.390       .  A
C1057      H1068   1.085       .  S
C1058      C1059   1.400       .  A
C1058      H1069   1.084       .  S
C1059      C1060   1.421       .  A
C1059      C1064   1.403       .  A
C1060      C1061   1.414       .  A
C1061      C1062   1.394       .  A
C1061      H1070   1.078       .  S
C1062      C1063   1.398       .  A
C1062      H1071   1.083       .  S
C1063      C1064   1.401       .  A
C1064      H1072   1.085       .  S
C1073      C1074   1.394       .  A
C1073      C1078   1.397       .  A
C1074      C1075   1.392       .  A
C1074      H1087   1.083       .  S
C1075      C1076   1.415       .  A
C1075      H1088   1.076       .  S
C1076      C1082   1.426       .  A
C1076      C1077   1.423       .  A
C1077      C1079   1.400       .  A
C1077      C1078   1.404       .  A
C1078      H1089   1.084       .  S
C1079      C1080   1.391       .  A
C1079      H1090   1.083       .  S
C1080      C1081   1.400       .  A
C1080      H2537   1.084       .  S
C1081      C1082   1.423       .  A
C1081      C1086   1.404       .  A
C1082      C1083   1.415       .  A
C1083      C1084   1.393       .  A
C1083      H1092   1.077       .  S
C1084      C1085   1.394       .  A
C1084      H1093   1.084       .  S
C1085      C1086   1.397       .  A
C1086      H1094   1.085       .  S
H1091      C2526   1.084       .  S
C1095      C1096   1.397       .  A
C1095      C1100   1.399       .  A
C1096      C1097   1.392       .  A
C1096      H1109   1.083       .  S
C1097      C1098   1.415       .  A
C1097      H1110   1.077       .  S
C1098      C1104   1.425       .  A
C1098      C1099   1.422       .  A
C1099      C1101   1.399       .  A
C1099      C1100   1.402       .  A
C1100      H1111   1.085       .  S
C1101      C1102   1.390       .  A
C1101      H1112   1.084       .  S
C1102      C1103   1.400       .  A
C1102      H1113   1.084       .  S
C1103      C1104   1.423       .  A
C1103      C1108   1.404       .  A
C1104      C1105   1.414       .  A
C1105      C1106   1.393       .  A
C1105      H1114   1.077       .  S
C1106      C1107   1.397       .  A
C1106      H1115   1.084       .  S
C1107      C1108   1.399       .  A
C1108      H1116   1.085       .  S
C1117      C1118   1.398       .  A
C1117      C1122   1.402       .  A
C1118      C1119   1.403       .  A
C1118      H1131   1.083       .  S
C1119      C1120   1.419       .  A
C1119      H1132   1.078       .  S
C1120      C1126   1.435       .  A
C1120      C1121   1.422       .  A
C1121      C1123   1.400       .  A
C1121      C1122   1.405       .  A
C1122      H1133   1.085       .  S
C1123      C1124   1.391       .  A
C1123      H1134   1.084       .  S
C1124      C1125   1.399       .  A
C1124      H2581   1.084   1_455  S
C1125      C1126   1.425       .  A
C1125      C1130   1.410       .  A
C1126      C1127   1.415       .  A
C1127      C1128   1.399       .  A
C1127      H1136   1.078       .  S
C1128      C1129   1.402       .  A
C1129      C1130   1.398       .  A
C1130      H2584   1.085   1_455  S
H1135      C2570   1.084       .  S
H1138      C2576   1.085       .  S
C1139      C1140   1.399       .  A
C1139      C1144   1.399       .  A
C1140      C1141   1.396       .  A
C1140      H2599   1.084   1_455  S
C1141      C1142   1.414       .  A
C1141      H1154   1.077       .  S
C1142      C1148   1.432       .  A
C1142      C1143   1.425       .  A
C1143      C1145   1.399       .  A
C1143      C1144   1.409       .  A
C1144      H1155   1.085       .  S
C1145      C1146   1.391       .  A
C1145      H1156   1.084       .  S
C1146      C1147   1.400       .  A
C1146      H1157   1.084       .  S
C1147      C1148   1.422       .  A
C1147      C1152   1.404       .  A
C1148      C1149   1.418       .  A
C1149      C1150   1.400       .  A
C1149      H1158   1.078       .  S
C1150      C1151   1.396       .  A
C1150      H1159   1.083       .  S
C1151      C1152   1.401       .  A
C1152      H1160   1.084       .  S
H1153      C2586   1.084       .  S
C1161      C1162   1.399       .  A
C1161      C1166   1.401       .  A
C1162      C1163   1.400       .  A
C1163      C1164   1.415       .  A
C1163      H1176   1.079       .  S
C1164      C1170   1.430       .  A
C1164      C1165   1.422       .  A
C1165      C1167   1.401       .  A
C1165      C1166   1.408       .  A
C1166      H1177   1.085       .  S
C1167      C1168   1.393       .  A
C1167      H1178   1.084       .  S
C1168      C1169   1.400       .  A
C1168      H1179   1.084       .  S
C1169      C1170   1.422       .  A
C1169      C1174   1.408       .  A
C1170      C1171   1.415       .  A
C1171      C1172   1.399       .  A
C1171      H1180   1.079       .  S
C1172      C1173   1.398       .  A
C1172      H1181   1.083       .  S
C1173      C1174   1.400       .  A
C1174      H1182   1.085       .  S
C1183      C1184   1.399       .  A
C1183      C1188   1.399       .  A
C1184      C1185   1.393       .  A
C1184      H1197   1.084       .  S
C1185      C1186   1.413       .  A
C1185      H1198   1.078       .  S
C1186      C1192   1.426       .  A
C1186      C1187   1.422       .  A
C1187      C1189   1.399       .  A
C1187      C1188   1.403       .  A
C1189      C1190   1.389       .  A
C1190      C1191   1.399       .  A
C1190      H1201   1.084       .  S
C1191      C1192   1.421       .  A
C1191      C1196   1.402       .  A
C1192      C1193   1.416       .  A
C1193      C1194   1.396       .  A
C1193      H1202   1.078       .  S
C1194      C1195   1.398       .  A
C1194      H1203   1.083       .  S
C1195      C1196   1.400       .  A
C1196      H1204   1.085       .  S
C1205      C1206   1.399       .  A
C1205      C1210   1.399       .  A
C1206      C1207   1.392       .  A
C1206      H1219   1.084       .  S
C1207      C1208   1.413       .  A
C1207      H1220   1.078       .  S
C1208      C1214   1.424       .  A
C1208      C1209   1.423       .  A
C1209      C1211   1.399       .  A
C1209      C1210   1.403       .  A
C1210      H1221   1.085       .  S
C1211      C1212   1.389       .  A
C1211      H1222   1.084       .  S
C1212      C1213   1.399       .  A
C1212      H2669   1.084   1_455  S
C1213      C1214   1.421       .  A
C1213      C1218   1.401       .  A
C1214      C1215   1.414       .  A
C1215      C1216   1.393       .  A
C1215      H1224   1.078       .  S
C1216      C1217   1.400       .  A
C1216      H1225   1.081       .  S
C1217      C1218   1.400       .  A
C1218      H2672   1.085   1_455  S
H1223      C2658   1.084       .  S
H1226      C2664   1.085       .  S
C1227      C1228   1.398       .  A
C1227      C1232   1.399       .  A
C1228      C1229   1.395       .  A
C1228      H1241   1.083       .  S
C1229      C1230   1.416       .  A
C1229      H1242   1.077       .  S
C1230      C1236   1.425       .  A
C1230      C1231   1.421       .  A
C1231      C1233   1.399       .  A
C1231      C1232   1.400       .  A
C1232      H1243   1.085       .  S
C1233      C1234   1.388       .  A
C1233      H1244   1.084       .  S
C1234      C1235   1.398       .  A
C1234      H1245   1.084       .  S
C1235      C1236   1.423       .  A
C1235      C1240   1.401       .  A
C1236      C1237   1.412       .  A
C1237      C1238   1.391       .  A
C1237      H1246   1.078       .  S
C1238      C1239   1.399       .  A
C1238      H1247   1.084   1_565  S
C1239      C1240   1.397       .  A
C1240      H1248   1.084       .  S
C1249      C1250   1.400       .  A
C1249      C1254   1.403       .  A
C1250      C1251   1.392       .  A
C1250      H1263   1.084       .  S
C1251      C1252   1.411       .  A
C1251      H1264   1.078       .  S
C1252      C1258   1.425       .  A
C1252      C1253   1.421       .  A
C1253      C1255   1.400       .  A
C1253      C1254   1.406       .  A
C1254      H1265   1.083       .  S
C1255      C1256   1.393       .  A
C1255      H1266   1.084       .  S
C1256      C1257   1.401       .  A
C1256      H1267   1.084       .  S
C1257      C1258   1.420       .  A
C1257      C1262   1.405       .  A
C1258      C1259   1.414       .  A
C1259      C1260   1.394       .  A
C1259      H1268   1.078       .  S
C1260      C1261   1.399       .  A
C1260      H1269   1.083       .  S
C1261      C1262   1.404       .  A
C1262      H1270   1.085       .  S
C1271      C1272   1.398       .  A
C1271      C1276   1.398       .  A
C1272      C1273   1.393       .  A
C1272      H1285   1.084       .  S
C1273      C2720   1.414       .  A
C1273      H1286   1.077       .  S
C1274      C2719   1.414   1_455  A
C1274      C1280   1.426       .  A
C1274      C1275   1.423       .  A
C1275      C1277   1.399       .  A
C1275      C2722   1.404   1_455  A
C1276      C2721   1.404       .  A
C1276      H1287   1.085       .  S
C1277      C1278   1.389       .  A
C1277      H1288   1.084       .  S
C1278      C1279   1.399       .  A
C1278      H1289   1.084       .  S
C1279      C1280   1.421       .  A
C1279      C1284   1.401       .  A
C1280      C1281   1.415       .  A
C1281      C1282   1.394       .  A
C1281      H1290   1.077       .  S
C1282      C1283   1.398       .  A
C1282      H1291   1.083       .  S
C1283      C1284   1.399       .  A
C1284      H1292   1.085       .  S
C1293      C1294   1.397       .  A
C1293      C1298   1.399       .  A
C1294      C1295   1.391       .  A
C1294      H1307   1.084       .  S
C1295      C1296   1.413       .  A
C1295      H1308   1.077       .  S
C1296      C1302   1.424       .  A
C1296      C1297   1.423       .  A
C1297      C1299   1.399       .  A
C1297      C1298   1.402       .  A
C1298      H1309   1.084       .  S
C1299      H1310   1.084       .  S
C1300      C1301   1.400       .  A
C1300      H1311   1.084       .  S
C1301      C1306   1.402       .  A
C1303      C1304   1.394       .  A
C1304      C1305   1.397       .  A
C1304      H1313   1.084       .  S
C1305      C1306   1.401       .  A
C1306      H1314   1.085       .  S
C1315      C1316   1.399       .  A
C1315      C1320   1.403       .  A
C1316      C1317   1.393       .  A
C1316      H1329   1.083       .  S
C1317      C1318   1.413       .  A
C1317      H1330   1.077       .  S
C1318      C1324   1.428       .  A
C1318      C1319   1.422       .  A
C1319      C1321   1.400       .  A
C1319      C1320   1.406       .  A
C1320      H1331   1.085       .  S
C1321      C1322   1.391       .  A
C1321      H1332   1.084       .  S
C1322      C1323   1.400       .  A
C1322      H1333   1.084       .  S
C1323      C1324   1.423       .  A
C1323      C1328   1.405       .  A
C1324      C1325   1.415       .  A
C1325      C1326   1.394       .  A
C1325      H1334   1.077       .  S
C1326      C1327   1.395       .  A
C1326      H1335   1.084       .  S
C1327      C1328   1.399       .  A
C1328      H1336   1.085       .  S
C1337      C1338   1.400       .  A
C1337      C1342   1.401       .  A
C1338      C1339   1.391       .  A
C1338      H1351   1.083       .  S
C1339      C2786   1.412   1_455  A
C1339      H1352   1.077       .  S
C1340      C2785   1.412       .  A
C1340      C1346   1.424       .  A
C1340      C1341   1.422       .  A
C1341      C1343   1.399       .  A
C1341      C2788   1.402       .  A
C1342      C2787   1.402   1_455  A
C1342      H1353   1.084       .  S
C1343      C1344   1.389       .  A
C1343      H1354   1.084       .  S
C1344      C1345   1.399       .  A
C1344      H1355   1.084       .  S
C1345      C1346   1.422       .  A
C1345      C1350   1.400       .  A
C1346      C1347   1.416       .  A
C1347      C1348   1.393       .  A
C1347      H1356   1.077       .  S
C1348      C1349   1.394       .  A
C1348      H1357   1.084       .  S
C1349      C1350   1.395       .  A
C1350      H1358   1.085       .  S
C1359      C1360   1.395       .  A
C1359      C1364   1.395       .  A
C1360      C1361   1.393       .  A
C1360      H1373   1.084       .  S
C1361      C1362   1.415       .  A
C1361      H1374   1.077       .  S
C1362      C1368   1.424       .  A
C1362      C1363   1.423       .  A
C1363      C1365   1.398       .  A
C1363      C1364   1.401       .  A
C1364      H1375   1.085       .  S
C1365      C1366   1.389       .  A
C1365      H1376   1.084       .  S
C1366      C1367   1.399       .  A
C1366      H1377   1.084       .  S
C1367      C1368   1.422       .  A
C1369      C1370   1.393       .  A
C1369      H1378   1.077       .  S
C1370      C1371   1.400       .  A
C1370      H1379   1.083       .  S
C1371      C1372   1.401       .  A
C1372      H1380   1.084       .  S
C1381      C1382   1.397       .  A
C1381      C1386   1.402       .  A
C1382      C1383   1.399       .  A
C1382      H1395   1.083       .  S
C1383      C1384   1.418       .  A
C1383      H1396   1.078       .  S
C1384      C1390   1.432       .  A
C1384      C1385   1.422       .  A
C1385      C1387   1.400       .  A
C1385      C1386   1.405       .  A
C1386      H1397   1.085       .  S
C1387      C1388   1.391       .  A
C1387      H1398   1.084       .  S
C1388      C1389   1.399       .  A
C1388      H1399   1.084       .  S
C1389      C1390   1.425       .  A
C1389      C1394   1.409       .  A
C1390      C1391   1.414       .  A
C1391      C1392   1.395       .  A
C1391      H1400   1.077       .  S
C1392      C1393   1.400       .  A
C1392      H1401   1.084       .  S
C1393      C1394   1.397       .  A
C1394      H1402   1.084       .  S
C1403      C1404   1.397       .  A
C1403      C1408   1.405       .  A
C1404      C1405   1.401       .  A
C1404      H1417   1.083       .  S
C1405      C1406   1.418       .  A
C1405      H1418   1.078       .  S
C1406      C1407   1.421       .  A
C1407      C1409   1.401       .  A
C1407      C1408   1.408       .  A
C1408      H1419   1.085       .  S
C1409      H1420   1.084       .  S
C1410      C1411   1.400       .  A
C1410      H1421   1.084       .  S
C1411      C1412   1.425       .  A
C1411      C1416   1.413       .  A
C1412      C1413   1.413       .  A
C1413      C1414   1.397       .  A
C1413      H1422   1.077       .  S
C1414      C1415   1.401       .  A
C1414      H1423   1.084       .  S
C1415      C1416   1.400       .  A
C1416      H1424   1.085       .  S
C1425      C1426   1.401       .  A
C1425      C1430   1.398       .  A
C1426      C1427   1.399       .  A
C1426      H1439   1.084       .  S
C1427      C1428   1.415       .  A
C1427      H1440   1.077       .  S
C1428      C2880   1.435       .  A
C1428      C1429   1.425       .  A
C1429      C1431   1.399       .  A
C1429      C1430   1.410       .  A
C1430      H1441   1.084       .  S
C1431      C2878   1.391       .  A
C1431      H1442   1.084       .  S
C1432      C2877   1.391   1_455  A
C1432      C1433   1.400       .  A
C1432      H1443   1.084       .  S
C1433      C1434   1.422       .  A
C1433      C1438   1.406       .  A
C1434      C2874   1.435   1_455  A
C1434      C1435   1.419       .  A
C1435      C1436   1.403       .  A
C1435      H1444   1.078       .  S
C1436      C1437   1.398       .  A
C1436      H1445   1.083       .  S
C1437      C1438   1.402       .  A
C1438      H1446   1.085       .  S
C1447      H1448   1.111       .  S
C1447      C1453   1.550       .  S
C1447      C1452   1.552       .  S
C1447      C1451   1.551       .  S
C1449      H1450   1.113       .  S
C1449      C1455   1.520       .  S
C1449      C1454   1.519       .  S
C1449      C1456   1.522       .  S
C1451      C1454   1.371       .  D
C1451      C2148   1.488       .  S
C1452      C1455   1.374       .  D
C1452      C2116   1.483       .  S
C1453      C1456   1.371       .  D
C1453      C2138   1.490       .  S
C1454      C2072   1.467       .  S
C1455      C2050   1.478       .  S
C1456      C2082   1.469       .  S
C1457      H1458   1.111       .  S
C1457      C1463   1.524       .  S
C1457      C1462   1.525       .  S
C1457      C1461   1.523       .  S
C1459      H1460   1.111       .  S
C1459      C1465   1.553       .  S
C1459      C1464   1.551       .  S
C1459      C1466   1.552       .  S
C1461      C1464   1.374       .  D
C1461      C2006   1.481       .  S
C1462      C1465   1.377       .  D
C1462      C1972   1.488       .  S
C1463      C1466   1.374       .  D
C1463      C2016   1.478       .  S
C1464      C2160   1.489       .  S
C1465      C2104   1.485       .  S
C1466      C2126   1.492       .  S
O1467      C1483   1.272       .  A
O1467     Zn1473   1.996       .  S
C1468      O1484   1.272       .  A
C1468      O1481   1.273       .  A
C1468      C1928   1.470       .  S
O1469      C1482   1.275       .  A
O1469     Cd1476   2.074       .  S
O1470      C1488   1.274       .  A
O1470     Cd1479   2.061       .  S
O1471      C1485   1.274       .  A
O1471     Cd1475   2.061       .  S
O1472      C1483   1.274       .  A
O1472     Cd1475   2.068       .  S
Zn1473     O1484   1.994       .  S
Zn1473     O1486   1.993       .  S
Zn1473     O1478   1.922       .  S
O1474      C1485   1.273       .  A
O1474     Cd1479   2.047       .  S
Cd1475     O1477   2.055       .  S
Cd1475     O1478   1.996       .  S
Cd1476     O1480   2.060       .  S
Cd1476     O1489   2.072       .  S
Cd1476     O1478   1.996       .  S
O1477      C1487   1.274       .  A
O1478     Cd1479   1.990       .  S
Cd1479     O1481   2.065       .  S
O1480      C1487   1.274       .  A
C1482      O1486   1.272       .  A
C1482      C1918   1.471       .  S
C1483      C1950   1.470       .  S
C1485      C2060   1.473       .  S
C1487      C2094   1.474       .  S
C1488      O1489   1.274       .  A
C1488      C2038   1.478       .  S
C1490      H1491   1.110       .  S
C1490      C1496   1.523   1_565  S
C1490      C2218   1.520       .  S
C1492      H1493   1.111       .  S
C1492      C2221   1.551       .  S
C1492      C1499   1.547   1_565  S
C1494      C1497   1.374       .  D
C1494      C1906   1.482       .  S
C1495      C2213   1.520       .  S
C1495      C1498   1.375       .  D
C1495      C1962   1.478       .  S
C1496      C1499   1.375       .  D
C1496      C1940   1.484       .  S
C1497      C1884   1.482       .  S
C1498      C2215   1.551       .  S
C1498      C1852   1.488       .  S
C1499      C1862   1.482       .  S
C1500      H1501   1.111       .  S
C1500      C1506   1.548       .  S
C1500      C1505   1.549       .  S
C1500      C1504   1.548       .  S
C1502      H1503   1.112       .  S
C1502      C1508   1.519       .  S
C1502      C1507   1.524       .  S
C1502      C1509   1.528       .  S
C1504      C1507   1.375       .  D
C1504      C1840   1.489       .  S
C1505      C1508   1.369       .  D
C1505      C1874   1.482       .  S
C1506      C1509   1.378       .  D
C1506      C1896   1.482       .  S
C1507      C1818   1.478       .  S
C1508      C1796   1.471       .  S
C1509      C1774   1.486       .  S
C1510      H1511   1.112       .  S
C1510      C1516   1.524       .  S
C1510      C1515   1.521       .  S
C1510      C1514   1.519       .  S
C1512      H1513   1.111       .  S
C1512      C1518   1.554       .  S
C1512      C1517   1.552       .  S
C1512      C1519   1.548       .  S
C1514      C1517   1.371       .  D
C1514      C1676   1.472       .  S
C1515      C1518   1.374       .  D
C1515      C1686   1.478       .  S
C1516      C1519   1.372       .  D
C1516      C1642   1.467       .  S
C1517      C1730   1.484       .  S
C1518      C1720   1.486       .  S
C1519      C1764   1.493       .  S
C1520      H2244   1.111       .  S
C1520      C1526   1.550       .  S
H1521      C2243   1.111       .  S
C1522      H1523   1.112       .  S
C1522      C1529   1.521       .  S
C1524      C1527   1.370       .  D
C1524      C1708   1.487       .  S
C1525      C1528   1.375       .  D
C1525      C1752   1.489       .  S
C1526      C1529   1.372       .  D
C1526      C1742   1.483       .  S
C1527      C1632   1.467       .  S
C1528      C1598   1.479       .  S
C1529      C1576   1.476       .  S
O1530      C1546   1.272       .  A
O1530     Zn1536   1.999       .  S
C1531      O1547   1.271       .  A
C1531      O1544   1.275       .  A
C1531      C2028   1.469       .  S
O1532      C1545   1.274       .  A
O1532     Cd1539   2.073       .  S
O1533      C1551   1.275       .  A
O1533     Cd1542   2.070       .  S
O1534      C1548   1.277       .  A
O1534     Cd1538   2.079       .  S
O1535      C1546   1.276       .  A
O1535     Cd1538   2.076       .  S
Zn1536     O1547   1.994       .  S
Zn1536     O1549   1.995       .  S
Zn1536     O1541   1.929       .  S
O1537      C1548   1.275       .  A
O1537     Cd1542   2.067       .  S
Cd1538     O1540   2.074       .  S
Cd1538     O1541   1.996       .  S
Cd1539     O1543   2.066       .  S
Cd1539     O1552   2.048       .  S
Cd1539     O1541   1.995       .  S
O1540      C1550   1.276       .  A
O1541     Cd1542   2.001       .  S
Cd1542     O1544   2.071       .  S
O1543      C1550   1.275       .  A
C1545      O1549   1.271       .  A
C1545      C1994   1.470       .  S
C1546      C1984   1.476       .  S
C1548      C1588   1.482       .  S
C1550      C1610   1.479       .  S
C1551      O1552   1.273       .  A
C1551      C1620   1.475       .  S
O1553      C1569   1.270       .  A
O1553     Zn1559   1.988       .  S
C1554      O1570   1.273       .  A
C1554      O1567   1.273       .  A
C1554      C1830   1.468       .  S
O1555      C1568   1.275   1_554  A
O1555     Cd1562   2.068       .  S
O1556      C1574   1.272       .  A
O1557      C1571   1.275       .  A
O1557     Cd1561   2.066       .  S
O1558      C1569   1.275   1_554  A
O1558     Cd1561   2.079       .  S
Zn1559     O2293   2.009   1_545  S
Zn1559     O1564   1.931   1_556  S
O1560      C1571   1.274       .  A
O1560     Cd2288   2.063   1_545  S
Cd1561     O1564   1.999       .  S
Cd1562     O2289   2.067       .  S
Cd1562     O1575   2.059       .  S
O1563      C1573   1.276       .  A
O1564     Cd2288   1.997   1_545  S
Cd1565     O2283   2.063       .  S
Cd1565     O1567   2.063   1_554  S
Cd1565     O2287   1.997       .  S
O1566      C1573   1.275       .  A
O1566     Cd2285   2.067   1_545  S
C1568      O1572   1.272       .  A
C1568      C1786   1.471       .  S
C1569      C1808   1.459       .  S
O1570     Zn2282   2.009       .  S
C1571      C1664   1.477       .  S
C1573      C1698   1.482       .  S
C1574      O1575   1.273       .  A
C1574      C1654   1.469       .  S
C1576      C1577   1.397       .  A
C1576      C1581   1.396       .  A
C1577      C1578   1.398       .  A
C1577      H1590   1.084       .  S
C1578      C1579   1.417       .  A
C1578      H1591   1.078       .  S
C1579      C1585   1.430       .  A
C1579      C1580   1.423       .  A
C1580      C1582   1.399       .  A
C1580      C1581   1.402       .  A
C1581      H2315   1.085   1_545  S
C1582      C1583   1.389       .  A
C1582      H2316   1.084   1_545  S
C1583      C1584   1.399       .  A
C1583      H1594   1.084       .  S
C1584      C1585   1.423       .  A
C1584      C1589   1.405       .  A
C1585      C1586   1.414       .  A
C1586      C1587   1.397       .  A
C1586      H1595   1.078       .  S
C1587      C1588   1.401       .  A
C1587      H1596   1.083       .  S
C1588      C1589   1.402       .  A
C1589      H1597   1.085       .  S
H1592      C2304   1.085       .  S
H1593      C2305   1.084       .  S
C1598      C1599   1.397       .  A
C1598      C1603   1.398       .  A
C1599      C1600   1.398       .  A
C1600      C1601   1.417       .  A
C1600      H1613   1.077       .  S
C1601      C1607   1.430       .  A
C1601      C1602   1.422       .  A
C1602      C1604   1.399       .  A
C1602      C1603   1.403       .  A
C1603      H1614   1.085       .  S
C1604      C1605   1.390       .  A
C1604      H1615   1.084       .  S
C1605      C1606   1.399       .  A
C1605      H1616   1.084       .  S
C1606      C1607   1.423       .  A
C1606      C1611   1.405       .  A
C1607      C1608   1.414       .  A
C1608      C1609   1.396       .  A
C1608      H1617   1.077       .  S
C1609      C1610   1.401       .  A
C1609      H1618   1.083       .  S
C1610      C1611   1.401       .  A
C1611      H1619   1.085       .  S
C1620      C1621   1.400       .  A
C1620      C1625   1.401       .  A
C1621      C1622   1.391       .  A
C1621      H1634   1.083       .  S
C1622      C1623   1.413       .  A
C1622      H1635   1.077       .  S
C1623      C1629   1.425       .  A
C1623      C1624   1.422       .  A
C1624      C1626   1.399       .  A
C1624      C1625   1.403       .  A
C1625      H1636   1.085       .  S
C1626      C1627   1.389       .  A
C1626      H2360   1.084       .  S
C1627      C1628   1.399       .  A
C1627      H2361   1.084       .  S
C1628      C1629   1.423       .  A
C1628      C1633   1.402       .  A
C1629      C1630   1.416       .  A
C1630      C1631   1.391       .  A
C1630      H1639   1.076   1_655  S
C1631      C1632   1.393       .  A
C1632      C1633   1.395       .  A
C1633      H2364   1.085       .  S
H1637      C2349   1.084       .  S
H1638      C2350   1.084       .  S
H1641      C2356   1.085       .  S
C1642      C1643   1.394       .  A
C1642      C1647   1.395       .  A
C1643      C1644   1.391       .  A
C1643      H1656   1.084       .  S
C1644      C1645   1.415       .  A
C1644      H1657   1.077       .  S
C1645      C1651   1.424       .  A
C1645      C1646   1.423       .  A
C1646      C1648   1.398       .  A
C1646      C1647   1.400       .  A
C1647      H1658   1.085       .  S
C1648      C1649   1.388       .  A
C1648      H1659   1.084       .  S
C1649      C1650   1.399       .  A
C1649      H1660   1.084       .  S
C1650      C1651   1.422       .  A
C1650      C1655   1.400       .  A
C1651      C1652   1.414       .  A
C1652      C1653   1.392       .  A
C1652      H1661   1.077       .  S
C1653      C1654   1.399       .  A
C1653      H1662   1.083       .  S
C1654      C1655   1.399       .  A
C1655      H1663   1.085       .  S
C1664      C1665   1.401       .  A
C1664      C1669   1.401       .  A
C1665      C1666   1.395       .  A
C1665      H1678   1.083       .  S
C1666      C1667   1.414       .  A
C1666      H1679   1.078       .  S
C1667      C1673   1.427       .  A
C1667      C1668   1.422       .  A
C1668      C1670   1.399       .  A
C1668      C1669   1.403       .  A
C1669      H1680   1.085       .  S
C1670      C1671   1.389       .  A
C1670      H1681   1.084       .  S
C1671      C1672   1.398       .  A
C1671      H1682   1.084       .  S
C1672      C1673   1.423       .  A
C1672      C1677   1.401       .  A
C1673      C1674   1.416       .  A
C1674      C1675   1.395       .  A
C1674      H1683   1.078       .  S
C1675      C1676   1.396       .  A
C1675      H1684   1.084       .  S
C1676      C1677   1.395       .  A
C1677      H1685   1.085       .  S
C1686      C1687   1.397       .  A
C1686      C1691   1.397       .  A
C1687      C1688   1.396       .  A
C1687      H1700   1.084       .  S
C1688      C1689   1.415       .  A
C1688      H1701   1.077       .  S
C1689      C1695   1.430       .  A
C1689      C1690   1.424       .  A
C1690      C1692   1.399       .  A
C1690      C1691   1.405       .  A
C1691      H1702   1.085       .  S
C1692      C1693   1.390       .  A
C1692      H1703   1.084       .  S
C1693      C1694   1.400       .  A
C1694      C1695   1.422       .  A
C1694      C1699   1.405       .  A
C1695      C1696   1.415       .  A
C1696      C1697   1.397       .  A
C1696      H1705   1.078       .  S
C1697      C1698   1.401       .  A
C1697      H1706   1.083       .  S
C1698      C1699   1.402       .  A
C1699      H1707   1.085       .  S
C1708      C1709   1.401       .  A
C1708      C1713   1.399       .  A
C1709      C1710   1.397       .  A
C1710      C1711   1.414       .  A
C1710      H1723   1.078       .  S
C1711      C1717   1.434       .  A
C1711      C1712   1.425       .  A
C1712      C1714   1.399       .  A
C1712      C1713   1.411       .  A
C1713      H2447   1.085   1_545  S
C1714      C1715   1.392       .  A
C1714      H2448   1.084   1_545  S
C1715      C1716   1.400       .  A
C1715      H1726   1.084       .  S
C1716      C1717   1.422       .  A
C1716      C1721   1.406       .  A
C1717      C1718   1.419       .  A
C1718      C1719   1.401       .  A
C1718      H1727   1.078       .  S
C1719      C1720   1.397       .  A
C1719      H1728   1.084       .  S
C1720      C1721   1.402       .  A
C1721      H1729   1.085       .  S
H1724      C2436   1.085       .  S
H1725      C2437   1.084       .  S
C1730      C1731   1.394       .  A
C1730      C1735   1.404       .  A
C1731      C1732   1.398       .  A
C1731      H1744   1.084       .  S
C1732      C1733   1.418       .  A
C1732      H1745   1.077       .  S
C1733      C1739   1.431       .  A
C1733      C1734   1.421       .  A
C1734      C1736   1.402       .  A
C1734      C1735   1.407       .  A
C1735      H1746   1.085       .  S
C1736      C1737   1.394       .  A
C1736      H1747   1.084       .  S
C1737      C1738   1.401       .  A
C1737      H1748   1.084       .  S
C1738      C1739   1.425       .  A
C1738      C1743   1.412       .  A
C1739      C1740   1.413       .  A
C1740      C1741   1.393       .  A
C1740      H1749   1.077       .  S
C1741      C1742   1.398       .  A
C1741      H1750   1.084   1_545  S
C1742      C1743   1.401       .  A
C1743      H1751   1.084       .  S
C1752      C1753   1.397       .  A
C1752      C1757   1.403       .  A
C1753      C1754   1.402       .  A
C1753      H1766   1.084   1_655  S
C1754      C1755   1.419       .  A
C1754      H1767   1.078       .  S
C1755      C1761   1.435       .  A
C1755      C1756   1.422       .  A
C1756      C1758   1.401       .  A
C1756      C1757   1.408       .  A
C1757      H1768   1.085       .  S
C1758      C1759   1.393       .  A
C1758      H1769   1.084       .  S
C1759      C1760   1.400       .  A
C1759      H1770   1.084       .  S
C1760      C1761   1.425       .  A
C1760      C1765   1.413       .  A
C1761      C1762   1.414       .  A
C1762      C1763   1.398       .  A
C1762      H1771   1.078       .  S
C1763      C1764   1.401       .  A
C1763      H1772   1.083       .  S
C1764      C1765   1.401       .  A
C1765      H1773   1.085       .  S
C1774      C1775   1.400       .  A
C1774      C1779   1.399       .  A
C1775      C1776   1.393       .  A
C1775      H1788   1.081       .  S
C1776      C1777   1.412       .  A
C1776      H1789   1.078       .  S
C1777      C1783   1.425       .  A
C1777      C1778   1.421       .  A
C1778      C1780   1.399       .  A
C1778      C1779   1.402       .  A
C1779      H1790   1.079       .  S
C1780      C1781   1.390       .  A
C1780      H1791   1.085       .  S
C1781      C1782   1.400       .  A
C1781      H1792   1.084       .  S
C1782      C1783   1.421       .  A
C1782      C1787   1.403       .  A
C1783      C1784   1.414       .  A
C1784      C1785   1.394       .  A
C1784      H1793   1.078       .  S
C1785      C1786   1.398       .  A
C1785      H1794   1.083       .  S
C1786      C1787   1.401       .  A
C1787      H1795   1.085       .  S
C1796      C1797   1.394       .  A
C1796      C1801   1.397       .  A
C1797      C1798   1.392       .  A
C1797      H1810   1.083       .  S
C1798      C1799   1.415       .  A
C1798      H1811   1.076       .  S
C1799      C1805   1.426       .  A
C1799      C1800   1.423       .  A
C1800      C1802   1.400       .  A
C1800      C1801   1.404       .  A
C1801      H1812   1.084       .  S
C1802      C1803   1.391       .  A
C1802      H1813   1.083       .  S
C1803      C1804   1.400       .  A
C1804      C1805   1.423       .  A
C1804      C1809   1.404       .  A
C1805      C1806   1.415       .  A
C1806      C1807   1.393       .  A
C1806      H1815   1.077       .  S
C1807      C1808   1.394       .  A
C1807      H1816   1.084       .  S
C1808      C1809   1.397       .  A
C1809      H1817   1.085       .  S
C1818      C1819   1.397       .  A
C1818      C1823   1.399       .  A
C1819      C1820   1.392       .  A
C1819      H1832   1.083       .  S
C1820      C1821   1.415       .  A
C1820      H1833   1.077       .  S
C1821      C1827   1.425       .  A
C1821      C1822   1.422       .  A
C1822      C1824   1.399       .  A
C1822      C1823   1.402       .  A
C1823      H1834   1.085       .  S
C1824      C1825   1.390       .  A
C1824      H1835   1.084       .  S
C1825      C1826   1.400       .  A
C1825      H1836   1.084       .  S
C1826      C1827   1.423       .  A
C1826      C1831   1.404       .  A
C1827      C1828   1.414       .  A
C1828      C1829   1.393       .  A
C1828      H1837   1.077       .  S
C1829      C1830   1.397       .  A
C1829      H1838   1.084       .  S
C1830      C1831   1.399       .  A
C1831      H1839   1.085       .  S
C1840      C1841   1.398       .  A
C1840      C1845   1.402       .  A
C1841      C1842   1.403       .  A
C1841      H1854   1.083       .  S
C1842      C1843   1.419       .  A
C1842      H1855   1.078       .  S
C1843      C1849   1.435       .  A
C1843      C1844   1.422       .  A
C1844      C1846   1.400       .  A
C1844      C1845   1.405       .  A
C1845      H1856   1.085       .  S
C1846      C1847   1.391       .  A
C1846      H1857   1.084       .  S
C1847      C1848   1.399       .  A
C1848      C1849   1.425       .  A
C1848      C1853   1.410       .  A
C1849      C1850   1.415       .  A
C1850      C1851   1.399       .  A
C1850      H1859   1.078       .  S
C1851      C1852   1.402       .  A
C1851      H2583   1.084       .  S
C1852      C1853   1.398       .  A
H1860      C2574   1.084   1_545  S
C1862      C1863   1.399       .  A
C1862      C1867   1.399       .  A
C1863      C1864   1.396       .  A
C1864      C1865   1.414       .  A
C1864      H1877   1.077       .  S
C1865      C1871   1.432       .  A
C1865      C1866   1.425       .  A
C1866      C1868   1.399       .  A
C1866      C1867   1.409       .  A
C1867      H1878   1.085       .  S
C1868      C1869   1.391       .  A
C1868      H1879   1.084       .  S
C1869      C1870   1.400       .  A
C1869      H1880   1.084       .  S
C1870      C1871   1.422       .  A
C1870      C1875   1.404       .  A
C1871      C1872   1.418       .  A
C1872      C1873   1.400       .  A
C1872      H1881   1.078       .  S
C1873      C1874   1.396       .  A
C1873      H1882   1.083       .  S
C1874      C1875   1.401       .  A
C1875      H1883   1.084       .  S
C1884      C1885   1.399       .  A
C1884      C1889   1.401       .  A
C1885      C1886   1.400       .  A
C1885      H2621   1.084       .  S
C1886      C1887   1.415       .  A
C1886      H1899   1.079       .  S
C1887      C1893   1.430       .  A
C1887      C1888   1.422       .  A
C1888      C1890   1.401       .  A
C1888      C1889   1.408       .  A
C1889      H1900   1.085       .  S
C1890      C1891   1.393       .  A
C1890      H1901   1.084       .  S
C1891      C1892   1.400       .  A
C1891      H1902   1.084       .  S
C1892      C1893   1.422       .  A
C1892      C1897   1.408       .  A
C1893      C1894   1.415       .  A
C1894      C1895   1.399       .  A
C1894      H1903   1.079       .  S
C1895      C1896   1.398       .  A
C1895      H1904   1.083       .  S
C1896      C1897   1.400       .  A
C1897      H1905   1.085       .  S
H1898      C2608   1.084   1_545  S
C1906      C1907   1.399       .  A
C1906      C1911   1.399       .  A
C1907      C1908   1.393       .  A
C1907      H1920   1.084       .  S
C1908      C1909   1.413       .  A
C1908      H1921   1.078       .  S
C1909      C1915   1.426       .  A
C1909      C1910   1.422       .  A
C1910      C1912   1.399       .  A
C1910      C1911   1.403       .  A
C1911      H2645   1.081       .  S
C1912      C1913   1.389       .  A
C1912      H2646   1.084       .  S
C1913      C1914   1.399       .  A
C1913      H1924   1.084       .  S
C1914      C1915   1.421       .  A
C1914      C1919   1.402       .  A
C1915      C1916   1.416       .  A
C1916      C1917   1.396       .  A
C1916      H1925   1.078       .  S
C1917      C1918   1.398       .  A
C1917      H1926   1.083       .  S
C1918      C1919   1.400       .  A
C1919      H1927   1.085       .  S
H1922      C2634   1.081       .  S
H1923      C2635   1.084       .  S
C1928      C1929   1.399       .  A
C1928      C1933   1.399       .  A
C1929      C1930   1.392       .  A
C1929      H1942   1.084       .  S
C1930      C1931   1.413       .  A
C1930      H1943   1.078       .  S
C1931      C1937   1.424       .  A
C1931      C1932   1.423       .  A
C1932      C1934   1.399       .  A
C1932      C1933   1.403       .  A
C1933      H1944   1.085       .  S
C1934      C1935   1.389       .  A
C1934      H1945   1.084       .  S
C1935      C1936   1.399       .  A
C1936      C1937   1.421       .  A
C1936      C1941   1.401       .  A
C1937      C1938   1.414       .  A
C1938      C1939   1.393       .  A
C1938      H1947   1.078       .  S
C1939      C1940   1.400       .  A
C1939      H1948   1.081       .  S
C1940      C1941   1.400       .  A
C1950      C1951   1.398       .  A
C1950      C1955   1.399       .  A
C1951      C1952   1.395       .  A
C1951      H1964   1.083       .  S
C1952      C1953   1.416       .  A
C1952      H1965   1.077       .  S
C1953      C1959   1.425       .  A
C1953      C1954   1.421       .  A
C1954      C1956   1.399       .  A
C1954      C1955   1.400       .  A
C1955      H1966   1.085       .  S
C1956      C1957   1.388       .  A
C1956      H1967   1.084       .  S
C1957      C1958   1.398       .  A
C1957      H1968   1.084       .  S
C1958      C1959   1.423       .  A
C1958      C1963   1.401       .  A
C1959      C1960   1.412       .  A
C1960      C1961   1.391       .  A
C1960      H1969   1.078       .  S
C1961      C1962   1.399       .  A
C1961      H1970   1.084       .  S
C1962      C1963   1.397       .  A
C1963      H1971   1.084       .  S
C1972      C1973   1.400       .  A
C1972      C1977   1.403       .  A
C1973      C1974   1.392       .  A
C1973      H1986   1.084       .  S
C1974      C1975   1.411       .  A
C1974      H1987   1.078       .  S
C1975      C1981   1.425       .  A
C1975      C1976   1.421       .  A
C1976      C1978   1.400       .  A
C1976      C1977   1.406       .  A
C1977      H1988   1.083       .  S
C1978      C1979   1.393       .  A
C1978      H1989   1.084       .  S
C1979      C1980   1.401       .  A
C1979      H1990   1.084       .  S
C1980      C1981   1.420       .  A
C1980      C1985   1.405       .  A
C1981      C1982   1.414       .  A
C1982      C1983   1.394       .  A
C1982      H1991   1.078       .  S
C1983      C1984   1.399       .  A
C1983      H1992   1.083       .  S
C1984      C1985   1.404       .  A
C1985      H1993   1.085       .  S
C1994      C1995   1.398       .  A
C1994      C1999   1.398       .  A
C1995      C1996   1.393       .  A
C1995      H2008   1.084       .  S
C1996      H2009   1.077       .  S
C1997      C2003   1.426       .  A
C1997      C1998   1.423       .  A
C1998      C2000   1.399       .  A
C1999      H2010   1.085       .  S
C2000      C2001   1.389       .  A
C2000      H2011   1.084       .  S
C2001      C2002   1.399       .  A
C2001      H2012   1.084       .  S
C2002      C2003   1.421       .  A
C2002      C2007   1.401       .  A
C2003      C2004   1.415       .  A
C2004      C2005   1.394       .  A
C2004      H2013   1.077       .  S
C2005      C2006   1.398       .  A
C2005      H2014   1.083       .  S
C2006      C2007   1.399       .  A
C2007      H2015   1.085       .  S
C2016      C2017   1.397       .  A
C2016      C2021   1.399       .  A
C2017      C2018   1.391       .  A
C2017      H2030   1.084       .  S
C2018      C2019   1.413       .  A
C2018      H2031   1.077       .  S
C2019      C2025   1.424       .  A
C2019      C2020   1.423       .  A
C2020      C2022   1.399       .  A
C2020      C2021   1.402       .  A
C2021      H2032   1.084       .  S
C2022      C2746   1.390       .  A
C2022      H2033   1.084       .  S
C2023      C2745   1.390   1_545  A
C2023      C2024   1.400       .  A
C2023      H2034   1.084       .  S
C2024      C2748   1.421   1_545  A
C2024      C2029   1.402       .  A
C2025      C2747   1.421       .  A
C2025      C2749   1.415       .  A
C2026      C2748   1.415       .  A
C2026      C2027   1.394   1_565  A
C2026      H2758   1.077       .  S
C2027      C2028   1.397       .  A
C2027      H2036   1.084       .  S
C2028      C2029   1.401       .  A
C2029      H2037   1.085       .  S
H2035      C2749   1.077       .  S
C2038      C2039   1.399       .  A
C2038      C2043   1.403       .  A
C2039      C2040   1.393       .  A
C2039      H2052   1.083       .  S
C2040      C2041   1.413       .  A
C2040      H2053   1.077       .  S
C2041      C2047   1.428       .  A
C2041      C2042   1.422       .  A
C2042      C2044   1.400       .  A
C2042      C2043   1.406       .  A
C2043      H2054   1.085       .  S
C2044      C2045   1.391       .  A
C2044      H2055   1.084       .  S
C2045      C2046   1.400       .  A
C2045      H2056   1.084       .  S
C2046      C2047   1.423       .  A
C2046      C2051   1.405       .  A
C2047      C2048   1.415       .  A
C2048      C2049   1.394       .  A
C2048      H2057   1.077       .  S
C2049      C2050   1.395       .  A
C2049      H2058   1.084       .  S
C2050      C2051   1.399       .  A
C2051      H2059   1.085       .  S
C2060      C2061   1.400       .  A
C2060      C2065   1.401       .  A
C2061      C2062   1.391       .  A
C2061      H2074   1.083       .  S
C2062      H2075   1.077       .  S
C2063      C2069   1.424       .  A
C2063      C2064   1.422       .  A
C2064      C2066   1.399       .  A
C2065      H2076   1.084       .  S
C2066      C2067   1.389       .  A
C2066      H2077   1.084       .  S
C2067      C2068   1.399       .  A
C2067      H2078   1.084       .  S
C2068      C2069   1.422       .  A
C2068      C2073   1.400       .  A
C2069      C2070   1.416       .  A
C2070      C2071   1.393       .  A
C2070      H2079   1.077       .  S
C2071      C2072   1.394       .  A
C2071      H2080   1.084       .  S
C2072      C2073   1.395       .  A
C2073      H2081   1.085       .  S
C2082      C2083   1.395       .  A
C2082      C2087   1.395       .  A
C2083      C2084   1.393       .  A
C2083      H2096   1.084       .  S
C2084      C2085   1.415       .  A
C2084      H2097   1.077       .  S
C2085      C2091   1.424       .  A
C2085      C2086   1.423       .  A
C2086      C2088   1.398       .  A
C2086      C2087   1.401       .  A
C2087      H2098   1.085       .  S
C2088      C2089   1.389       .  A
C2088      H2099   1.084       .  S
C2089      C2090   1.399   1_545  A
C2089      H2100   1.084       .  S
C2090      C2091   1.422   1_565  A
C2090      C2818   1.401       .  A
C2091      C2815   1.414   1_545  A
C2092      C2814   1.414       .  A
C2092      C2093   1.393       .  A
C2092      H2101   1.077       .  S
C2093      C2094   1.400       .  A
C2093      H2102   1.084       .  S
C2094      C2095   1.401       .  A
C2095      C2813   1.401       .  A
C2095      H2103   1.084       .  S
C2104      C2105   1.397       .  A
C2104      C2109   1.402       .  A
C2105      C2106   1.399       .  A
C2105      H2118   1.083       .  S
C2106      C2107   1.418       .  A
C2106      H2119   1.078       .  S
C2107      C2113   1.432       .  A
C2107      C2108   1.422       .  A
C2108      C2110   1.400       .  A
C2108      C2109   1.405       .  A
C2109      H2120   1.085       .  S
C2110      C2111   1.391       .  A
C2110      H2121   1.084       .  S
C2111      C2112   1.399       .  A
C2111      H2122   1.084       .  S
C2112      C2113   1.425       .  A
C2112      C2117   1.409       .  A
C2113      C2114   1.414       .  A
C2114      C2115   1.395       .  A
C2114      H2123   1.077       .  S
C2115      C2116   1.400       .  A
C2115      H2124   1.084       .  S
C2116      C2117   1.397       .  A
C2117      H2125   1.084       .  S
C2126      C2127   1.397       .  A
C2126      C2131   1.405       .  A
C2127      C2128   1.401       .  A
C2127      H2140   1.083       .  S
C2128      C2129   1.418       .  A
C2128      H2141   1.078       .  S
C2129      C2858   1.434       .  A
C2129      C2130   1.421       .  A
C2130      C2132   1.401       .  A
C2130      C2131   1.408       .  A
C2131      H2142   1.085       .  S
C2132      C2856   1.394       .  A
C2132      H2143   1.084       .  S
C2133      C2855   1.394   1_545  A
C2133      C2134   1.400       .  A
C2133      H2144   1.084       .  S
C2134      C2135   1.425       .  A
C2134      C2139   1.413       .  A
C2135      C2852   1.434   1_545  A
C2135      C2136   1.413       .  A
C2136      C2137   1.397       .  A
C2136      H2145   1.077       .  S
C2137      C2138   1.401       .  A
C2137      H2146   1.084       .  S
C2138      C2139   1.400       .  A
C2139      H2147   1.085       .  S
C2148      C2149   1.401       .  A
C2148      C2153   1.398       .  A
C2149      C2150   1.399       .  A
C2149      H2162   1.084       .  S
C2150      C2151   1.415       .  A
C2150      H2163   1.077       .  S
C2151      C2152   1.425       .  A
C2152      C2154   1.399       .  A
C2152      C2153   1.410       .  A
C2153      H2164   1.084       .  S
C2154      H2165   1.084       .  S
C2155      C2156   1.400       .  A
C2155      H2166   1.084       .  S
C2156      C2157   1.422       .  A
C2156      C2161   1.406       .  A
C2157      C2158   1.419       .  A
C2158      C2159   1.403       .  A
C2158      H2167   1.078       .  S
C2159      C2160   1.398       .  A
C2159      H2168   1.083       .  S
C2160      C2161   1.402       .  A
C2161      H2169   1.085       .  S
C2170      H2171   1.111       .  S
C2170      C2176   1.550       .  S
C2170      C2175   1.552       .  S
C2170      C2174   1.551       .  S
C2172      H2173   1.113       .  S
C2172      C2178   1.520       .  S
C2172      C2177   1.519       .  S
C2172      C2179   1.522       .  S
C2174      C2177   1.371       .  D
C2174      C2871   1.488       .  S
C2175      C2178   1.374       .  D
C2175      C2839   1.483       .  S
C2176      C2179   1.371       .  D
C2176      C2861   1.490       .  S
C2177      C2795   1.467       .  S
C2178      C2773   1.478       .  S
C2179      C2805   1.469       .  S
C2180      H2181   1.111       .  S
C2180      C2186   1.524       .  S
C2180      C2185   1.525       .  S
C2180      C2184   1.523       .  S
C2182      H2183   1.111       .  S
C2182      C2188   1.553       .  S
C2182      C2187   1.551       .  S
C2182      C2189   1.552       .  S
C2184      C2187   1.374       .  D
C2184      C2729   1.481       .  S
C2185      C2188   1.377       .  D
C2185      C2695   1.488       .  S
C2186      C2189   1.374       .  D
C2186      C2739   1.478       .  S
C2187      C2883   1.489       .  S
C2188      C2827   1.485       .  S
C2189      C2849   1.492       .  S
O2190      C2206   1.272       .  A
O2190     Zn2196   1.996       .  S
C2191      O2207   1.272       .  A
C2191      O2204   1.273       .  A
C2191      C2651   1.470       .  S
O2192      C2205   1.275       .  A
O2192     Cd2199   2.074       .  S
O2193      C2211   1.274       .  A
O2193     Cd2202   2.061       .  S
O2194      C2208   1.274       .  A
O2194     Cd2198   2.061       .  S
O2195      C2206   1.274       .  A
O2195     Cd2198   2.068       .  S
Zn2196     O2207   1.994       .  S
Zn2196     O2209   1.993       .  S
Zn2196     O2201   1.922       .  S
O2197      C2208   1.273       .  A
O2197     Cd2202   2.047       .  S
Cd2198     O2200   2.055       .  S
Cd2198     O2201   1.996       .  S
Cd2199     O2203   2.060       .  S
Cd2199     O2212   2.072       .  S
Cd2199     O2201   1.996       .  S
O2200      C2210   1.274       .  A
O2201     Cd2202   1.990       .  S
Cd2202     O2204   2.065       .  S
O2203      C2210   1.274       .  A
C2205      O2209   1.272       .  A
C2205      C2641   1.471       .  S
C2206      C2673   1.470       .  S
C2208      C2783   1.473       .  S
C2210      C2817   1.474       .  S
C2211      O2212   1.274       .  A
C2211      C2761   1.478       .  S
C2213      H2214   1.110       .  S
C2213      C2219   1.523       .  S
C2215      H2216   1.111       .  S
C2215      C2222   1.547       .  S
C2217      C2220   1.374       .  D
C2217      C2629   1.482       .  S
C2218      C2221   1.375       .  D
C2218      C2685   1.478       .  S
C2219      C2222   1.375       .  D
C2219      C2663   1.484       .  S
C2220      C2607   1.482       .  S
C2221      C2575   1.488       .  S
C2222      C2585   1.482       .  S
C2223      H2224   1.111       .  S
C2223      C2229   1.548       .  S
C2223      C2228   1.549       .  S
C2223      C2227   1.548       .  S
C2225      H2226   1.112       .  S
C2225      C2231   1.519       .  S
C2225      C2230   1.524       .  S
C2225      C2232   1.528       .  S
C2227      C2230   1.375       .  D
C2227      C2563   1.489       .  S
C2228      C2231   1.369       .  D
C2228      C2597   1.482       .  S
C2229      C2232   1.378       .  D
C2229      C2619   1.482       .  S
C2230      C2541   1.478       .  S
C2231      C2519   1.471       .  S
C2232      C2497   1.486       .  S
C2233      H2234   1.112       .  S
C2233      C2239   1.524       .  S
C2233      C2238   1.521       .  S
C2233      C2237   1.519       .  S
C2235      H2236   1.111       .  S
C2235      C2241   1.554       .  S
C2235      C2240   1.552       .  S
C2235      C2242   1.548       .  S
C2237      C2240   1.371       .  D
C2237      C2399   1.472       .  S
C2238      C2241   1.374       .  D
C2238      C2409   1.478       .  S
C2239      C2242   1.372       .  D
C2239      C2365   1.467       .  S
C2240      C2453   1.484       .  S
C2241      C2443   1.486       .  S
C2242      C2487   1.493       .  S
C2243      C2249   1.550       .  S
C2245      H2246   1.112       .  S
C2245      C2252   1.521       .  S
C2247      C2250   1.370       .  D
C2247      C2431   1.487       .  S
C2248      C2251   1.375       .  D
C2248      C2475   1.489       .  S
C2249      C2252   1.372       .  D
C2249      C2465   1.483       .  S
C2250      C2355   1.467       .  S
C2251      C2321   1.479       .  S
C2252      C2299   1.476       .  S
O2253      C2269   1.272       .  A
O2253     Zn2259   1.999       .  S
C2254      O2270   1.271       .  A
C2254      O2267   1.275       .  A
C2254      C2751   1.469       .  S
O2255      C2268   1.274       .  A
O2255     Cd2262   2.073       .  S
O2256      C2274   1.275       .  A
O2256     Cd2265   2.070       .  S
O2257      C2271   1.277       .  A
O2257     Cd2261   2.079       .  S
O2258      C2269   1.276       .  A
O2258     Cd2261   2.076       .  S
Zn2259     O2270   1.994       .  S
Zn2259     O2272   1.995       .  S
Zn2259     O2264   1.929       .  S
O2260      C2271   1.275       .  A
O2260     Cd2265   2.067       .  S
Cd2261     O2263   2.074       .  S
Cd2261     O2264   1.996       .  S
Cd2262     O2266   2.066       .  S
Cd2262     O2275   2.048       .  S
Cd2262     O2264   1.995       .  S
O2263      C2273   1.276       .  A
O2264     Cd2265   2.001       .  S
Cd2265     O2267   2.071       .  S
O2266      C2273   1.275       .  A
C2268      O2272   1.271       .  A
C2268      C2717   1.470       .  S
C2269      C2707   1.476       .  S
C2271      C2311   1.482       .  S
C2273      C2333   1.479       .  S
C2274      O2275   1.273       .  A
C2274      C2343   1.475       .  S
O2276      C2292   1.270       .  A
O2276     Zn2282   1.988       .  S
C2277      O2293   1.273       .  A
C2277      O2290   1.273       .  A
C2277      C2553   1.468       .  S
O2278      C2291   1.275   1_554  A
O2278     Cd2285   2.068       .  S
O2279      C2297   1.272       .  A
O2280      C2294   1.275       .  A
O2280     Cd2284   2.066       .  S
O2281      C2292   1.275   1_554  A
O2281     Cd2284   2.079       .  S
Zn2282     O2287   1.931   1_556  S
O2283      C2294   1.274       .  A
Cd2284     O2287   1.999       .  S
Cd2285     O2298   2.059       .  S
O2286      C2296   1.276       .  A
Cd2288     O2290   2.063   1_554  S
O2289      C2296   1.275       .  A
C2291      O2295   1.272       .  A
C2291      C2509   1.471       .  S
C2292      C2531   1.459       .  S
C2294      C2387   1.477       .  S
C2296      C2421   1.482       .  S
C2297      O2298   1.273       .  A
C2297      C2377   1.469       .  S
C2299      C2300   1.397       .  A
C2299      C2304   1.396       .  A
C2300      C2301   1.398       .  A
C2300      H2313   1.084       .  S
C2301      C2302   1.417       .  A
C2301      H2314   1.078       .  S
C2302      C2308   1.430       .  A
C2302      C2303   1.423       .  A
C2303      C2305   1.399       .  A
C2303      C2304   1.402       .  A
C2305      C2306   1.389       .  A
C2306      C2307   1.399       .  A
C2306      H2317   1.084       .  S
C2307      C2308   1.423       .  A
C2307      C2312   1.405       .  A
C2308      C2309   1.414       .  A
C2309      C2310   1.397       .  A
C2309      H2318   1.078       .  S
C2310      C2311   1.401       .  A
C2310      H2319   1.083       .  S
C2311      C2312   1.402       .  A
C2312      H2320   1.085       .  S
C2321      C2322   1.397       .  A
C2321      C2326   1.398       .  A
C2322      C2323   1.398       .  A
C2323      C2324   1.417       .  A
C2323      H2336   1.077       .  S
C2324      C2330   1.430       .  A
C2324      C2325   1.422       .  A
C2325      C2327   1.399       .  A
C2325      C2326   1.403       .  A
C2326      H2337   1.085       .  S
C2327      C2328   1.390       .  A
C2327      H2338   1.084       .  S
C2328      C2329   1.399       .  A
C2328      H2339   1.084       .  S
C2329      C2330   1.423       .  A
C2329      C2334   1.405       .  A
C2330      C2331   1.414       .  A
C2331      C2332   1.396       .  A
C2331      H2340   1.077       .  S
C2332      C2333   1.401       .  A
C2332      H2341   1.083       .  S
C2333      C2334   1.401       .  A
C2334      H2342   1.085       .  S
C2343      C2344   1.400       .  A
C2343      C2348   1.401       .  A
C2344      C2345   1.391       .  A
C2344      H2357   1.083       .  S
C2345      C2346   1.413       .  A
C2345      H2358   1.077       .  S
C2346      C2352   1.425       .  A
C2346      C2347   1.422       .  A
C2347      C2349   1.399       .  A
C2347      C2348   1.403       .  A
C2348      H2359   1.085       .  S
C2349      C2350   1.389       .  A
C2350      C2351   1.399       .  A
C2351      C2352   1.423       .  A
C2351      C2356   1.402       .  A
C2352      C2353   1.416       .  A
C2353      C2354   1.391       .  A
C2353      H2362   1.076   1_655  S
C2354      C2355   1.393       .  A
C2355      C2356   1.395       .  A
C2365      C2366   1.394       .  A
C2365      C2370   1.395       .  A
C2366      C2367   1.391       .  A
C2366      H2379   1.084       .  S
C2367      C2368   1.415       .  A
C2367      H2380   1.077       .  S
C2368      C2374   1.424       .  A
C2368      C2369   1.423       .  A
C2369      C2371   1.398       .  A
C2369      C2370   1.400       .  A
C2370      H2381   1.085       .  S
C2371      C2372   1.388       .  A
C2371      H2382   1.084       .  S
C2372      C2373   1.399       .  A
C2372      H2383   1.084       .  S
C2373      C2374   1.422       .  A
C2373      C2378   1.400       .  A
C2374      C2375   1.414       .  A
C2375      C2376   1.392       .  A
C2375      H2384   1.077       .  S
C2376      C2377   1.399       .  A
C2376      H2385   1.083       .  S
C2377      C2378   1.399       .  A
C2378      H2386   1.085       .  S
C2387      C2388   1.401       .  A
C2387      C2392   1.401       .  A
C2388      C2389   1.395       .  A
C2388      H2401   1.083       .  S
C2389      C2390   1.414       .  A
C2389      H2402   1.078       .  S
C2390      C2396   1.427       .  A
C2390      C2391   1.422       .  A
C2391      C2393   1.399       .  A
C2391      C2392   1.403       .  A
C2392      H2403   1.085       .  S
C2393      C2394   1.389       .  A
C2393      H2404   1.084       .  S
C2394      C2395   1.398       .  A
C2394      H2405   1.084       .  S
C2395      C2396   1.423       .  A
C2395      C2400   1.401       .  A
C2396      C2397   1.416       .  A
C2397      C2398   1.395       .  A
C2397      H2406   1.078       .  S
C2398      C2399   1.396       .  A
C2398      H2407   1.084       .  S
C2399      C2400   1.395       .  A
C2400      H2408   1.085       .  S
C2409      C2410   1.397       .  A
C2409      C2414   1.397       .  A
C2410      C2411   1.396       .  A
C2410      H2423   1.084       .  S
C2411      C2412   1.415       .  A
C2411      H2424   1.077       .  S
C2412      C2418   1.430       .  A
C2412      C2413   1.424       .  A
C2413      C2415   1.399       .  A
C2413      C2414   1.405       .  A
C2414      H2425   1.085       .  S
C2415      C2416   1.390       .  A
C2415      H2426   1.084       .  S
C2416      C2417   1.400       .  A
C2417      C2418   1.422       .  A
C2417      C2422   1.405       .  A
C2418      C2419   1.415       .  A
C2419      C2420   1.397       .  A
C2419      H2428   1.078       .  S
C2420      C2421   1.401       .  A
C2420      H2429   1.083       .  S
C2421      C2422   1.402       .  A
C2422      H2430   1.085       .  S
C2431      C2432   1.401       .  A
C2431      C2436   1.399       .  A
C2432      C2433   1.397       .  A
C2433      C2434   1.414       .  A
C2433      H2446   1.078       .  S
C2434      C2440   1.434       .  A
C2434      C2435   1.425       .  A
C2435      C2437   1.399       .  A
C2435      C2436   1.411       .  A
C2437      C2438   1.392       .  A
C2438      C2439   1.400       .  A
C2438      H2449   1.084       .  S
C2439      C2440   1.422       .  A
C2439      C2444   1.406       .  A
C2440      C2441   1.419       .  A
C2441      C2442   1.401       .  A
C2441      H2450   1.078       .  S
C2442      C2443   1.397       .  A
C2442      H2451   1.084       .  S
C2443      C2444   1.402       .  A
C2444      H2452   1.085       .  S
C2453      C2454   1.394       .  A
C2453      C2458   1.404       .  A
C2454      C2455   1.398       .  A
C2454      H2467   1.084       .  S
C2455      C2456   1.418       .  A
C2455      H2468   1.077       .  S
C2456      C2462   1.431       .  A
C2456      C2457   1.421       .  A
C2457      C2459   1.402       .  A
C2457      C2458   1.407       .  A
C2458      H2469   1.085       .  S
C2459      C2460   1.394       .  A
C2459      H2470   1.084       .  S
C2460      C2461   1.401       .  A
C2460      H2471   1.084       .  S
C2461      C2462   1.425       .  A
C2461      C2466   1.412       .  A
C2462      C2463   1.413       .  A
C2463      C2464   1.393       .  A
C2463      H2472   1.077       .  S
C2464      C2465   1.398       .  A
C2464      H2473   1.084       .  S
C2465      C2466   1.401       .  A
C2466      H2474   1.084       .  S
C2475      C2476   1.397       .  A
C2475      C2480   1.403       .  A
C2476      C2477   1.402       .  A
C2476      H2489   1.084   1_655  S
C2477      C2478   1.419       .  A
C2477      H2490   1.078       .  S
C2478      C2484   1.435       .  A
C2478      C2479   1.422       .  A
C2479      C2481   1.401       .  A
C2479      C2480   1.408       .  A
C2480      H2491   1.085       .  S
C2481      C2482   1.393       .  A
C2481      H2492   1.084       .  S
C2482      C2483   1.400       .  A
C2482      H2493   1.084       .  S
C2483      C2484   1.425       .  A
C2483      C2488   1.413       .  A
C2484      C2485   1.414       .  A
C2485      C2486   1.398       .  A
C2485      H2494   1.078       .  S
C2486      C2487   1.401       .  A
C2486      H2495   1.083       .  S
C2487      C2488   1.401       .  A
C2488      H2496   1.085       .  S
C2497      C2498   1.400       .  A
C2497      C2502   1.399       .  A
C2498      C2499   1.393       .  A
C2498      H2511   1.081       .  S
C2499      C2500   1.412       .  A
C2499      H2512   1.078       .  S
C2500      C2506   1.425       .  A
C2500      C2501   1.421       .  A
C2501      C2503   1.399       .  A
C2501      C2502   1.402       .  A
C2502      H2513   1.079       .  S
C2503      C2504   1.390       .  A
C2503      H2514   1.085       .  S
C2504      C2505   1.400       .  A
C2504      H2515   1.084       .  S
C2505      C2506   1.421       .  A
C2505      C2510   1.403       .  A
C2506      C2507   1.414       .  A
C2507      C2508   1.394       .  A
C2507      H2516   1.078       .  S
C2508      C2509   1.398       .  A
C2508      H2517   1.083       .  S
C2509      C2510   1.401       .  A
C2510      H2518   1.085       .  S
C2519      C2520   1.394       .  A
C2519      C2524   1.397       .  A
C2520      C2521   1.392       .  A
C2520      H2533   1.083       .  S
C2521      C2522   1.415       .  A
C2521      H2534   1.076       .  S
C2522      C2528   1.426       .  A
C2522      C2523   1.423       .  A
C2523      C2525   1.400       .  A
C2523      C2524   1.404       .  A
C2524      H2535   1.084       .  S
C2525      C2526   1.391       .  A
C2525      H2536   1.083       .  S
C2526      C2527   1.400       .  A
C2527      C2528   1.423       .  A
C2527      C2532   1.404       .  A
C2528      C2529   1.415       .  A
C2529      C2530   1.393       .  A
C2529      H2538   1.077       .  S
C2530      C2531   1.394       .  A
C2530      H2539   1.084       .  S
C2531      C2532   1.397       .  A
C2532      H2540   1.085       .  S
C2541      C2542   1.397       .  A
C2541      C2546   1.399       .  A
C2542      C2543   1.392       .  A
C2542      H2555   1.083       .  S
C2543      C2544   1.415       .  A
C2543      H2556   1.077       .  S
C2544      C2550   1.425       .  A
C2544      C2545   1.422       .  A
C2545      C2547   1.399       .  A
C2545      C2546   1.402       .  A
C2546      H2557   1.085       .  S
C2547      C2548   1.390       .  A
C2547      H2558   1.084       .  S
C2548      C2549   1.400       .  A
C2548      H2559   1.084       .  S
C2549      C2550   1.423       .  A
C2549      C2554   1.404       .  A
C2550      C2551   1.414       .  A
C2551      C2552   1.393       .  A
C2551      H2560   1.077       .  S
C2552      C2553   1.397       .  A
C2552      H2561   1.084       .  S
C2553      C2554   1.399       .  A
C2554      H2562   1.085       .  S
C2563      C2564   1.398       .  A
C2563      C2568   1.402       .  A
C2564      C2565   1.403       .  A
C2564      H2577   1.083       .  S
C2565      C2566   1.419       .  A
C2565      H2578   1.078       .  S
C2566      C2572   1.435       .  A
C2566      C2567   1.422       .  A
C2567      C2569   1.400       .  A
C2567      C2568   1.405       .  A
C2568      H2579   1.085       .  S
C2569      C2570   1.391       .  A
C2569      H2580   1.084       .  S
C2570      C2571   1.399       .  A
C2571      C2572   1.425       .  A
C2571      C2576   1.410       .  A
C2572      C2573   1.415       .  A
C2573      C2574   1.399       .  A
C2573      H2582   1.078       .  S
C2574      C2575   1.402       .  A
C2575      C2576   1.398       .  A
C2585      C2586   1.399       .  A
C2585      C2590   1.399       .  A
C2586      C2587   1.396       .  A
C2587      C2588   1.414       .  A
C2587      H2600   1.077       .  S
C2588      C2594   1.432       .  A
C2588      C2589   1.425       .  A
C2589      C2591   1.399       .  A
C2589      C2590   1.409       .  A
C2590      H2601   1.085       .  S
C2591      C2592   1.391       .  A
C2591      H2602   1.084       .  S
C2592      C2593   1.400       .  A
C2592      H2603   1.084       .  S
C2593      C2594   1.422       .  A
C2593      C2598   1.404       .  A
C2594      C2595   1.418       .  A
C2595      C2596   1.400       .  A
C2595      H2604   1.078       .  S
C2596      C2597   1.396       .  A
C2596      H2605   1.083       .  S
C2597      C2598   1.401       .  A
C2598      H2606   1.084       .  S
C2607      C2608   1.399       .  A
C2607      C2612   1.401       .  A
C2608      C2609   1.400       .  A
C2609      C2610   1.415       .  A
C2609      H2622   1.079       .  S
C2610      C2616   1.430       .  A
C2610      C2611   1.422       .  A
C2611      C2613   1.401       .  A
C2611      C2612   1.408       .  A
C2612      H2623   1.085       .  S
C2613      C2614   1.393       .  A
C2613      H2624   1.084       .  S
C2614      C2615   1.400       .  A
C2614      H2625   1.084       .  S
C2615      C2616   1.422       .  A
C2615      C2620   1.408       .  A
C2616      C2617   1.415       .  A
C2617      C2618   1.399       .  A
C2617      H2626   1.079       .  S
C2618      C2619   1.398       .  A
C2618      H2627   1.083       .  S
C2619      C2620   1.400       .  A
C2620      H2628   1.085       .  S
C2629      C2630   1.399       .  A
C2629      C2634   1.399       .  A
C2630      C2631   1.393       .  A
C2630      H2643   1.084       .  S
C2631      C2632   1.413       .  A
C2631      H2644   1.078       .  S
C2632      C2638   1.426       .  A
C2632      C2633   1.422       .  A
C2633      C2635   1.399       .  A
C2633      C2634   1.403       .  A
C2635      C2636   1.389       .  A
C2636      C2637   1.399       .  A
C2636      H2647   1.084       .  S
C2637      C2638   1.421       .  A
C2637      C2642   1.402       .  A
C2638      C2639   1.416       .  A
C2639      C2640   1.396       .  A
C2639      H2648   1.078       .  S
C2640      C2641   1.398       .  A
C2640      H2649   1.083       .  S
C2641      C2642   1.400       .  A
C2642      H2650   1.085       .  S
C2651      C2652   1.399       .  A
C2651      C2656   1.399       .  A
C2652      C2653   1.392       .  A
C2652      H2665   1.084       .  S
C2653      C2654   1.413       .  A
C2653      H2666   1.078       .  S
C2654      C2660   1.424       .  A
C2654      C2655   1.423       .  A
C2655      C2657   1.399       .  A
C2655      C2656   1.403       .  A
C2656      H2667   1.085       .  S
C2657      C2658   1.389       .  A
C2657      H2668   1.084       .  S
C2658      C2659   1.399       .  A
C2659      C2660   1.421       .  A
C2659      C2664   1.401       .  A
C2660      C2661   1.414       .  A
C2661      C2662   1.393       .  A
C2661      H2670   1.078       .  S
C2662      C2663   1.400       .  A
C2662      H2671   1.081       .  S
C2663      C2664   1.400       .  A
C2673      C2674   1.398       .  A
C2673      C2678   1.399       .  A
C2674      C2675   1.395       .  A
C2674      H2687   1.083       .  S
C2675      C2676   1.416       .  A
C2675      H2688   1.077       .  S
C2676      C2682   1.425       .  A
C2676      C2677   1.421       .  A
C2677      C2679   1.399       .  A
C2677      C2678   1.400       .  A
C2678      H2689   1.085       .  S
C2679      C2680   1.388       .  A
C2679      H2690   1.084       .  S
C2680      C2681   1.398       .  A
C2680      H2691   1.084       .  S
C2681      C2682   1.423       .  A
C2681      C2686   1.401       .  A
C2682      C2683   1.412       .  A
C2683      C2684   1.391       .  A
C2683      H2692   1.078       .  S
C2684      C2685   1.399       .  A
C2684      H2693   1.084   1_565  S
C2685      C2686   1.397       .  A
C2686      H2694   1.084       .  S
C2695      C2696   1.400       .  A
C2695      C2700   1.403       .  A
C2696      C2697   1.392       .  A
C2696      H2709   1.084       .  S
C2697      C2698   1.411       .  A
C2697      H2710   1.078       .  S
C2698      C2704   1.425       .  A
C2698      C2699   1.421       .  A
C2699      C2701   1.400       .  A
C2699      C2700   1.406       .  A
C2700      H2711   1.083       .  S
C2701      C2702   1.393       .  A
C2701      H2712   1.084       .  S
C2702      C2703   1.401       .  A
C2702      H2713   1.084       .  S
C2703      C2704   1.420       .  A
C2703      C2708   1.405       .  A
C2704      C2705   1.414       .  A
C2705      C2706   1.394       .  A
C2705      H2714   1.078       .  S
C2706      C2707   1.399       .  A
C2706      H2715   1.083       .  S
C2707      C2708   1.404       .  A
C2708      H2716   1.085       .  S
C2717      C2718   1.398       .  A
C2717      C2722   1.398       .  A
C2718      C2719   1.393       .  A
C2718      H2731   1.084       .  S
C2719      H2732   1.077       .  S
C2720      C2726   1.426       .  A
C2720      C2721   1.423       .  A
C2721      C2723   1.399       .  A
C2722      H2733   1.085       .  S
C2723      C2724   1.389       .  A
C2723      H2734   1.084       .  S
C2724      C2725   1.399       .  A
C2724      H2735   1.084       .  S
C2725      C2726   1.421       .  A
C2725      C2730   1.401       .  A
C2726      C2727   1.415       .  A
C2727      C2728   1.394       .  A
C2727      H2736   1.077       .  S
C2728      C2729   1.398       .  A
C2728      H2737   1.083       .  S
C2729      C2730   1.399       .  A
C2730      H2738   1.085       .  S
C2739      C2740   1.397       .  A
C2739      C2744   1.399       .  A
C2740      C2741   1.391       .  A
C2740      H2753   1.084       .  S
C2741      C2742   1.413       .  A
C2741      H2754   1.077       .  S
C2742      C2748   1.424       .  A
C2742      C2743   1.423       .  A
C2743      C2745   1.399       .  A
C2743      C2744   1.402       .  A
C2744      H2755   1.084       .  S
C2745      H2756   1.084       .  S
C2746      C2747   1.400       .  A
C2746      H2757   1.084       .  S
C2747      C2752   1.402       .  A
C2749      C2750   1.394       .  A
C2750      C2751   1.397       .  A
C2750      H2759   1.084       .  S
C2751      C2752   1.401       .  A
C2752      H2760   1.085       .  S
C2761      C2762   1.399       .  A
C2761      C2766   1.403       .  A
C2762      C2763   1.393       .  A
C2762      H2775   1.083       .  S
C2763      C2764   1.413       .  A
C2763      H2776   1.077       .  S
C2764      C2770   1.428       .  A
C2764      C2765   1.422       .  A
C2765      C2767   1.400       .  A
C2765      C2766   1.406       .  A
C2766      H2777   1.085       .  S
C2767      C2768   1.391       .  A
C2767      H2778   1.084       .  S
C2768      C2769   1.400       .  A
C2768      H2779   1.084       .  S
C2769      C2770   1.423       .  A
C2769      C2774   1.405       .  A
C2770      C2771   1.415       .  A
C2771      C2772   1.394       .  A
C2771      H2780   1.077       .  S
C2772      C2773   1.395       .  A
C2772      H2781   1.084       .  S
C2773      C2774   1.399       .  A
C2774      H2782   1.085       .  S
C2783      C2784   1.400       .  A
C2783      C2788   1.401       .  A
C2784      C2785   1.391       .  A
C2784      H2797   1.083       .  S
C2785      H2798   1.077       .  S
C2786      C2792   1.424       .  A
C2786      C2787   1.422       .  A
C2787      C2789   1.399       .  A
C2788      H2799   1.084       .  S
C2789      C2790   1.389       .  A
C2789      H2800   1.084       .  S
C2790      C2791   1.399       .  A
C2790      H2801   1.084       .  S
C2791      C2792   1.422       .  A
C2791      C2796   1.400       .  A
C2792      C2793   1.416       .  A
C2793      C2794   1.393       .  A
C2793      H2802   1.077       .  S
C2794      C2795   1.394       .  A
C2794      H2803   1.084       .  S
C2795      C2796   1.395       .  A
C2796      H2804   1.085       .  S
C2805      C2806   1.395       .  A
C2805      C2810   1.395       .  A
C2806      C2807   1.393       .  A
C2806      H2819   1.084       .  S
C2807      C2808   1.415       .  A
C2807      H2820   1.077       .  S
C2808      C2814   1.424       .  A
C2808      C2809   1.423       .  A
C2809      C2811   1.398       .  A
C2809      C2810   1.401       .  A
C2810      H2821   1.085       .  S
C2811      C2812   1.389       .  A
C2811      H2822   1.084       .  S
C2812      C2813   1.399       .  A
C2812      H2823   1.084       .  S
C2813      C2814   1.422       .  A
C2815      C2816   1.393       .  A
C2815      H2824   1.077       .  S
C2816      C2817   1.400       .  A
C2816      H2825   1.083       .  S
C2817      C2818   1.401       .  A
C2818      H2826   1.084       .  S
C2827      C2828   1.397       .  A
C2827      C2832   1.402       .  A
C2828      C2829   1.399       .  A
C2828      H2841   1.083       .  S
C2829      C2830   1.418       .  A
C2829      H2842   1.078       .  S
C2830      C2836   1.432       .  A
C2830      C2831   1.422       .  A
C2831      C2833   1.400       .  A
C2831      C2832   1.405       .  A
C2832      H2843   1.085       .  S
C2833      C2834   1.391       .  A
C2833      H2844   1.084       .  S
C2834      C2835   1.399       .  A
C2834      H2845   1.084       .  S
C2835      C2836   1.425       .  A
C2835      C2840   1.409       .  A
C2836      C2837   1.414       .  A
C2837      C2838   1.395       .  A
C2837      H2846   1.077       .  S
C2838      C2839   1.400       .  A
C2838      H2847   1.084       .  S
C2839      C2840   1.397       .  A
C2840      H2848   1.085       .  S
C2849      C2850   1.397       .  A
C2849      C2854   1.405       .  A
C2850      C2851   1.401       .  A
C2850      H2863   1.083       .  S
C2851      C2852   1.418       .  A
C2851      H2864   1.078       .  S
C2852      C2853   1.421       .  A
C2853      C2855   1.401       .  A
C2853      C2854   1.408       .  A
C2854      H2865   1.085       .  S
C2855      H2866   1.084       .  S
C2856      C2857   1.400       .  A
C2856      H2867   1.084       .  S
C2857      C2858   1.425       .  A
C2857      C2862   1.413       .  A
C2858      C2859   1.413       .  A
C2859      C2860   1.397       .  A
C2859      H2868   1.077       .  S
C2860      C2861   1.401       .  A
C2860      H2869   1.084       .  S
C2861      C2862   1.400       .  A
C2862      H2870   1.085       .  S
C2871      C2872   1.401       .  A
C2871      C2876   1.398       .  A
C2872      C2873   1.399       .  A
C2872      H2885   1.084       .  S
C2873      C2874   1.415       .  A
C2873      H2886   1.077       .  S
C2874      C2875   1.425       .  A
C2875      C2877   1.399       .  A
C2875      C2876   1.410       .  A
C2876      H2887   1.084       .  S
C2877      H2888   1.084       .  S
C2878      C2879   1.400       .  A
C2878      H2889   1.084       .  S
C2879      C2880   1.422       .  A
C2879      C2884   1.406       .  A
C2880      C2881   1.419       .  A
C2881      C2882   1.403       .  A
C2881      H2890   1.078       .  S
C2882      C2883   1.398       .  A
C2882      H2891   1.083       .  S
C2883      C2884   1.402       .  A
C2884      H2892   1.085       .  S
