geometry optimzed in LAMMPS
_audit_creation_date              2020-11-30 
_audit_creation_method            'lammps2cif' 
_symmetry_space_group_name_H-M    'P1' 
_symmetry_Int_Tables_number       1 
_symmetry_cell_setting            triclinic 
loop_ 
_symmetry_equiv_pos_as_xyz 
  x,y,z 
_cell_length_a                    55.46424507 
_cell_length_b                    55.212723524277024 
_cell_length_c                    33.24488317481973 
_cell_angle_alpha                 89.97685495118036 
_cell_angle_beta                  89.99335699245779 
_cell_angle_gamma                 120.01692054484046 
loop_ 
_atom_site_label 
_atom_site_type_symbol 
_atom_site_fract_x 
_atom_site_fract_y 
_atom_site_fract_z 
_atom_site_charge 
O1          O  0.58413077  0.38791235  0.44457253    -0.88700
C2          C  0.61453362  0.44228344  0.53682769     0.87300
Mg3        Mg  0.59056330  0.40085374  0.38348790     1.58100
O4          O  0.54257817  0.41033637  0.52679690    -0.88500
O5          O  0.54942100  0.36284440  0.48571973    -0.75800
C6          C  0.54523653  0.49059170  0.37223087     0.92400
O7          O  0.63827090  0.44874937  0.44917136    -0.75600
O8          O  0.56275617  0.48478381  0.35704190    -0.83100
Mg9        Mg  0.62015911  0.40631642  0.48206075     1.58000
C10         C  0.50299529  0.45589929  0.53158145     0.92300
O11         O  0.60523037  0.36449453  0.51295086    -0.81400
H12         H  0.50515990  0.37575093  0.52759153    -0.06700
C13         C  0.58476459  0.48747215  0.47249223     0.87200
O14         O  0.54558257  0.39325475  0.38107032    -0.75900
O15         O  0.59947929  0.41864402  0.52282235    -0.88600
O16         O  0.52021815  0.45182162  0.55171766    -0.81500
C17         C  0.56727923  0.42503666  0.62838334     0.92400
C18         C  0.59135260  0.35021709  0.54314617     0.92200
Mg19       Mg  0.52616787  0.44390433  0.44788091     1.58000
O20         O  0.53509980  0.48208977  0.40739001    -0.81400
O21         O  0.50966075  0.40372993  0.48457366    -0.75600
O22         O  0.56976688  0.40668924  0.60843237    -0.81500
O23         O  0.64414293  0.39480170  0.44114236    -0.83200
O24         O  0.57785557  0.44148870  0.31999968    -0.81500
C25         C  0.51855449  0.39599686  0.51417983     0.86700
O26         O  0.54754318  0.43074653  0.40664421    -0.88600
O27         O  0.56425669  0.46504782  0.48246775    -0.88700
O28         O  0.59605453  0.49073487  0.43816990    -0.75800
Mg29       Mg  0.56058555  0.38637800  0.54591359     1.58000
O30         O  0.56106460  0.44193077  0.61133272    -0.83200
H31         H  0.55184122  0.35087408  0.42888573    -0.06900
O32         O  0.60705846  0.44326532  0.40396343    -0.88400
H33         H  0.64346375  0.47888775  0.40929507    -0.06700
H34         H  0.51209172  0.39875967  0.38560805    -0.06900
C35         C  0.63012946  0.45775455  0.41990689     0.86700
C36         C  0.56172171  0.36651342  0.45210417     0.87200
C37         C  0.53412519  0.40743485  0.39081551     0.87300
H38         H  0.59375309  0.50448421  0.49388536    -0.06900
O39         O  0.60543434  0.45885652  0.54371586    -0.75900
Mg40       Mg  0.58560540  0.46366921  0.38121302     1.58000
H41         H  0.63642035  0.44956414  0.54133925    -0.06900
C42         C  0.64974727  0.40008839  0.40419743     0.92300
O43         O  0.59496940  0.41282604  0.31770952    -0.83100
C44         C  0.58467764  0.42603541  0.30020224     0.92300
O45         O  0.57764869  0.35817872  0.56471809    -0.83100
Mg46       Mg  0.56189774  0.45335518  0.54488201     1.58200
O47         O  0.63469963  0.40565415  0.38125412    -0.81400
O48         O  0.50358963  0.45666210  0.49321574    -0.83100
O49         O  0.58679866  0.39170483  0.94048342    -0.88700
C50         C  0.61596999  0.44173036  0.03783088     0.87300
Mg51       Mg  0.59448217  0.40710423  0.88053321     1.58100
O52         O  0.54442734  0.41202113  0.02431389    -0.88500
O53         O  0.55107021  0.36546280  0.97939787    -0.75800
C54         C  0.55318878  0.49928013  0.87718926     0.92400
O55         O  0.64177231  0.45151793  0.95061441    -0.75600
O56         O  0.57067474  0.49356630  0.86184493    -0.83100
Mg57       Mg  0.62203117  0.40770592  0.97946827     1.58000
C58         C  0.50673925  0.46008805  0.03255434     0.92300
O59         O  0.60592654  0.36445681  0.00667715    -0.81400
H60         H  0.50649397  0.37824178  0.02109219    -0.06700
C61         C  0.59029600  0.49150473  0.97762644     0.87200
O62         O  0.55023706  0.40127459  0.87810845    -0.75900
O63         O  0.60098333  0.41889589  0.02148822    -0.88600
O64         O  0.52264169  0.45407609  0.05261471    -0.81500
C65         C  0.56626337  0.42156962  0.12728023     0.92400
C66         C  0.59138403  0.34921789  0.03577959     0.92200
Mg67       Mg  0.53182920  0.45090451  0.94876580     1.58000
O68         O  0.54348377  0.49149042  0.91262941    -0.81400
O69         O  0.51311701  0.40887824  0.98145230    -0.75600
O70         O  0.56945203  0.40396340  0.10633286    -0.81500
O71         O  0.64629350  0.39745000  0.93721303    -0.83200
O72         O  0.58482071  0.45194844  0.82092213    -0.81500
C73         C  0.52074279  0.39902026  0.01001618     0.86700
O74         O  0.55336856  0.43838638  0.90687834    -0.88600
O75         O  0.56890838  0.46919724  0.98543247    -0.88700
O76         O  0.60232641  0.49585226  0.94367783    -0.75800
Mg77       Mg  0.56127714  0.38635366  0.04159001     1.58000
O78         O  0.56058703  0.43907658  0.11107869    -0.83200
H79         H  0.55441878  0.35572016  0.92161571    -0.06900
O80         O  0.61220732  0.44890849  0.90452130    -0.88400
H81         H  0.64896247  0.48358557  0.91330158    -0.06700
H82         H  0.51771616  0.40825642  0.88336029    -0.06900
C83         C  0.63490275  0.46213507  0.92194579     0.86700
C84         C  0.56402962  0.37029936  0.94615659     0.87200
C85         C  0.53952152  0.41588352  0.88911593     0.87300
H86         H  0.59937941  0.50744096  0.00060757    -0.06900
O87         O  0.60709721  0.45828873  0.04633005    -0.75900
Mg88       Mg  0.59235453  0.47136323  0.88412217     1.58000
H89         H  0.63762826  0.44835630  0.04324069    -0.06900
C90         C  0.65235284  0.40364957  0.90054363     0.92300
O91         O  0.59985252  0.42160071  0.81569543    -0.83100
C92         C  0.59069578  0.43638632  0.79978272     0.92300
O93         O  0.57725430  0.35657268  0.05759901    -0.83100
Mg94       Mg  0.56403929  0.45417450  0.04638592     1.58200
O95         O  0.63779999  0.41013876  0.87803364    -0.81400
O96         O  0.50881280  0.46285764  0.99436967    -0.83100
O97         O  0.41110816  0.60869561  0.18803050    -0.88700
C98         C  0.37950318  0.55574860  0.28176401     0.87300
Mg99       Mg  0.40417700  0.59485076  0.12759668     1.58100
O100        O  0.45131750  0.58530405  0.27196899    -0.88500
O101        O  0.44627040  0.63337298  0.22861311    -0.75800
C102        C  0.44580499  0.50245788  0.12069958     0.92400
O103        O  0.35580347  0.54862471  0.19397343    -0.75600
O104        O  0.42907895  0.50909995  0.10498222    -0.83100
Mg105      Mg  0.37522435  0.59155163  0.22549557     1.58000
C106        C  0.48761388  0.53609825  0.28078384     0.92300
O107        O  0.39093340  0.63357314  0.25478134    -0.81400
H108        H  0.48950663  0.61880497  0.27339930    -0.06700
C109        C  0.40678390  0.50763573  0.21987055     0.87200
O110        O  0.44879869  0.60105172  0.12614348    -0.75900
O111        O  0.39520066  0.57897941  0.26702199    -0.88600
O112        O  0.47109883  0.54167644  0.29990305    -0.81500
C113        C  0.42697927  0.57315313  0.37341229     0.92400
C114        C  0.40485839  0.64792195  0.28475384     0.92200
Mg115      Mg  0.46617156  0.54926646  0.19566826     1.58000
O116        O  0.45552562  0.51037428  0.15615863    -0.81400
O117        O  0.48430108  0.58995668  0.23143494    -0.75600
O118        O  0.42522904  0.59173500  0.35293609    -0.81500
O119        O  0.35234105  0.60379448  0.18414010    -0.83200
O120        O  0.41665572  0.55339902  0.06637856    -0.81500
C121        C  0.47561750  0.59865949  0.26010665     0.86700
O122        O  0.44587225  0.56355154  0.15358538    -0.88600
O123        O  0.42780339  0.52969462  0.22964574    -0.88700
O124        O  0.39571841  0.50453337  0.18540243    -0.75800
Mg125      Mg  0.43456791  0.61078514  0.28954895     1.58000
O126        O  0.43210626  0.55540900  0.35668147    -0.83200
H127        H  0.44416105  0.64491850  0.17138827    -0.06900
O128        O  0.38683903  0.55280091  0.14945015    -0.88400
H129        H  0.34985867  0.51784457  0.15487852    -0.06700
H130        H  0.48176747  0.59480576  0.13229650    -0.06900
C131        C  0.36361008  0.53895288  0.16519785     0.86700
C132        C  0.43393650  0.62970276  0.19504404     0.87200
C133        C  0.45977071  0.58662289  0.13716063     0.87300
H134        H  0.39716283  0.49083525  0.24155345    -0.06900
O135        O  0.38772338  0.53858434  0.28950182    -0.75900
Mg136      Mg  0.40739799  0.53133362  0.12796314     1.58000
H137        H  0.35778677  0.54931248  0.28614413    -0.06900
C138        C  0.34586366  0.59756623  0.14765964     0.92300
O139        O  0.39942907  0.58188819  0.06250274    -0.83100
C140        C  0.41013766  0.56880318  0.04585873     0.92300
O141        O  0.41864848  0.64024980  0.30670259    -0.83100
Mg142      Mg  0.43053987  0.54243503  0.29141150     1.58200
O143        O  0.36018957  0.59096138  0.12479471    -0.81400
O144        O  0.48733017  0.53499358  0.24230927    -0.83100
O145        O  0.41601766  0.61022659  0.68856426    -0.88700
C146        C  0.38571412  0.55834292  0.78398157     0.87300
Mg147      Mg  0.40856635  0.59509786  0.62856787     1.58100
O148        O  0.45751471  0.58833985  0.77255171    -0.88500
O149        O  0.45153569  0.63543679  0.72840054    -0.75800
C150        C  0.44745681  0.50013302  0.62707466     0.92400
O151        O  0.36045847  0.55019457  0.69675293    -0.75600
O152        O  0.43080982  0.50664901  0.61060371    -0.83100
Mg153      Mg  0.38040246  0.59350555  0.72690670     1.58000
C154        C  0.49463477  0.54049894  0.78162044     0.92300
O155        O  0.39632829  0.63595859  0.75554529    -0.81400
H156        H  0.49550042  0.62216830  0.77121921    -0.06700
C157        C  0.41205513  0.50985605  0.72492430     0.87200
O158        O  0.45287584  0.60083202  0.62662958    -0.75900
O159        O  0.40099865  0.58137752  0.76834073    -0.88600
O160        O  0.47885768  0.54669685  0.80151656    -0.81500
C161        C  0.43390160  0.57700100  0.87458637     0.92400
C162        C  0.41046379  0.65030043  0.78544363     0.92200
Mg163      Mg  0.47085445  0.55061203  0.69721122     1.58000
O164        O  0.45889983  0.51043069  0.66085816    -0.81400
O165        O  0.48958883  0.59232539  0.73057881    -0.75600
O166        O  0.43111928  0.59490536  0.85382735    -0.81500
O167        O  0.35685224  0.60497250  0.68510194    -0.83200
O168        O  0.41865496  0.55061594  0.56904950    -0.81500
C169        C  0.48146832  0.60161994  0.75923777     0.86700
O170        O  0.44981430  0.56354187  0.65496646    -0.88600
O171        O  0.43350046  0.53201637  0.73296904    -0.88700
O172        O  0.39999359  0.50592078  0.69112041    -0.75800
Mg173      Mg  0.44046003  0.61351393  0.78994915     1.58000
O174        O  0.44007552  0.55991634  0.85842904    -0.83200
H175        H  0.44892035  0.64626001  0.67091969    -0.06900
O176        O  0.39112167  0.55346433  0.65230799    -0.88400
H177        H  0.35396471  0.51883930  0.65847423    -0.06700
H178        H  0.48554436  0.59409085  0.63216179    -0.06900
C179        C  0.36793652  0.54003226  0.66827217     0.86700
C180        C  0.43890975  0.63132572  0.69497460     0.87200
C181        C  0.46366618  0.58625731  0.63762319     0.87300
H182        H  0.40284733  0.49376628  0.74770100    -0.06900
O183        O  0.39444878  0.54170630  0.79266724    -0.75900
Mg184      Mg  0.41062562  0.53074817  0.63201856     1.58000
H185        H  0.36396989  0.55165277  0.78862687    -0.06900
C186        C  0.35060721  0.59872390  0.64850509     0.92300
O187        O  0.40314887  0.58044941  0.56403904    -0.83100
C188        C  0.41254916  0.56597259  0.54779747     0.92300
O189        O  0.42444370  0.64262942  0.80685905    -0.83100
Mg190      Mg  0.43756455  0.54607575  0.79386866     1.58200
O191        O  0.36490329  0.59193787  0.62584540    -0.81400
O192        O  0.49298689  0.53780928  0.74339597    -0.83100
O193        O  0.19364828  0.61229603  0.05516637    -0.88700
C194        C  0.17379618  0.56028213  0.96144584     0.87300
Mg195      Mg  0.18589460  0.59784747  0.11555471     1.58100
O196        O  0.13313059  0.59166772  0.97035449    -0.88500
O197        O  0.18594498  0.63876068  0.01389140    -0.75800
C198        C  0.05173177  0.50550831  0.11854342     0.92400
O199        O  0.18888242  0.55227077  0.04900177    -0.75600
O200        O  0.07482889  0.51132982  0.13433397    -0.83100
Mg201      Mg  0.21318785  0.59560182  0.01850276     1.58000
C202        C  0.04808120  0.54459397  0.95881832     0.92300
O203        O  0.23978552  0.63808077  0.99085598    -0.81400
H204        H  0.12954028  0.62591202  0.97106554    -0.06700
C205        C  0.09713412  0.51289437  0.02078551     0.87200
O206        O  0.14797127  0.60471761  0.11659897    -0.75900
O207        O  0.18181094  0.58379591  0.97559173    -0.88600
O208        O  0.07086540  0.55070018  0.94163423    -0.81500
C209        C  0.14510734  0.57800744  0.86921429     0.92400
C210        C  0.24165190  0.65345039  0.96138862     0.92200
Mg211      Mg  0.07994468  0.55486049  0.04559781     1.58000
O212        O  0.05061688  0.51557857  0.08428893    -0.81400
O213        O  0.10448067  0.59606603  0.01094214    -0.75600
O214        O  0.16595180  0.59675007  0.88883840    -0.81500
O215        O  0.24738004  0.60736871  0.06112259    -0.83200
O216        O  0.13114271  0.55410966  0.17639091    -0.81500
C217        C  0.12253368  0.60523830  0.98306503     0.86700
O218        O  0.11325834  0.56744309  0.08922006    -0.88600
O219        O  0.09913887  0.53557943  0.01214142    -0.88700
O220        O  0.10451146  0.50866098  0.05496218    -0.75800
Mg221      Mg  0.17553465  0.61644776  0.95254552     1.58000
O222        O  0.12216567  0.56146349  0.88640766    -0.83200
H223        H  0.19790470  0.64900976  0.07201391    -0.06900
O224        O  0.16127898  0.55604205  0.09275780    -0.88400
H225        H  0.16320634  0.52098576  0.08681831    -0.06700
H226        H  0.10895018  0.59890832  0.11070795    -0.06900
C227        C  0.17084608  0.54228581  0.07705391     0.86700
C228        C  0.19300647  0.63399328  0.04809464     0.87200
C229        C  0.12258997  0.59048353  0.10579296     0.87300
H230        H  0.08977458  0.49659913  0.99828798    -0.06900
O231        O  0.14834345  0.54347993  0.95397372    -0.75900
Mg232      Mg  0.11904570  0.53421804  0.11324301     1.58000
H233        H  0.18868396  0.55325918  0.95753077    -0.06900
C234        C  0.24671157  0.59984388  0.09714666     0.92300
O235        O  0.17663755  0.58427203  0.18032560    -0.83100
C236        C  0.15298790  0.56958088  0.19681595     0.92300
O237        O  0.22171708  0.64599248  0.93637259    -0.83100
Mg238      Mg  0.11036381  0.54893160  0.95112669     1.58200
O239        O  0.22540859  0.59288704  0.11930100    -0.81400
O240        O  0.04554528  0.54211257  0.99712492    -0.83100
O241        O  0.19702470  0.61077214  0.55494564    -0.88700
C242        C  0.17478781  0.55868449  0.46027605     0.87300
Mg243      Mg  0.18973575  0.59679023  0.61537978     1.58100
O244        O  0.13416796  0.59009616  0.47066676    -0.88500
O245        O  0.18756296  0.63663183  0.51493468    -0.75800
C246        C  0.05492318  0.50689680  0.62128424     0.92400
O247        O  0.19013559  0.54978926  0.54789273    -0.75600
O248        O  0.07796139  0.51257395  0.63717704    -0.83100
Mg249      Mg  0.21496478  0.59285591  0.51699325     1.58000
C250        C  0.04854055  0.54246351  0.46211830     0.92300
O251        O  0.24205428  0.63502517  0.48859749    -0.81400
H252        H  0.13064288  0.62436692  0.47015576    -0.06700
C253        C  0.09896058  0.51185088  0.52239961     0.87200
O254        O  0.15219046  0.60432412  0.61712900    -0.75900
O255        O  0.18298909  0.58203344  0.47511897    -0.88600
O256        O  0.07044943  0.54772250  0.44281968    -0.81500
C257        C  0.14544388  0.57785018  0.36931223     0.92400
C258        C  0.24335491  0.65105164  0.46032160     0.92200
Mg259      Mg  0.08299031  0.55479290  0.54729810     1.58000
O260        O  0.05388332  0.51620279  0.58646476    -0.81400
O261        O  0.10661853  0.59555855  0.51188498    -0.75600
O262        O  0.16625742  0.59629233  0.38927041    -0.81500
O263        O  0.24966409  0.60319491  0.55868028    -0.83200
O264        O  0.13516034  0.55539225  0.67687936    -0.81500
C265        C  0.12387235  0.60397991  0.48306877     0.86700
O266        O  0.11708168  0.56753699  0.58962765    -0.88600
O267        O  0.10089692  0.53442415  0.51305012    -0.88700
O268        O  0.10654035  0.50803636  0.55674721    -0.75800
Mg269      Mg  0.17653975  0.61497498  0.45337299     1.58000
O270        O  0.12271652  0.56014864  0.38621820    -0.83200
H271        H  0.20110495  0.64729701  0.57233542    -0.06900
O272        O  0.16423245  0.55478079  0.59339563    -0.88400
H273        H  0.16484747  0.51908037  0.58671742    -0.06700
H274        H  0.11347502  0.59934728  0.61141621    -0.06900
C275        C  0.17283502  0.54042734  0.57690550     0.86700
C276        C  0.19586459  0.63225136  0.54835908     0.87200
C277        C  0.12679127  0.59057663  0.60628043     0.87300
H278        H  0.09134458  0.49520862  0.50042840    -0.06900
O279        O  0.14928463  0.54206565  0.45294079    -0.75900
Mg280      Mg  0.12206551  0.53418706  0.61465425     1.58000
H281        H  0.18957372  0.55161163  0.45560220    -0.06900
C282        C  0.25026984  0.59811872  0.59563136     0.92300
O283        O  0.18100308  0.58358423  0.68030406    -0.83100
C284        C  0.15724779  0.57062666  0.69701897     0.92300
O285        O  0.22256361  0.64481844  0.43747338    -0.83100
Mg286      Mg  0.11113370  0.54724628  0.45132481     1.58200
O287        O  0.22957357  0.59239226  0.61850918    -0.81400
O288        O  0.04791793  0.54165479  0.50060016    -0.83100
O289        O  0.80193362  0.38789808  0.30559422    -0.88700
C290        C  0.82427999  0.44215089  0.21138100     0.87300
Mg291      Mg  0.80974635  0.40074444  0.36637343     1.58100
O292        O  0.86419150  0.40925495  0.22039938    -0.88500
O293        O  0.81065519  0.36206684  0.26419361    -0.75800
C294        C  0.94463740  0.49266833  0.37272915     0.92400
O295        O  0.80881358  0.44930713  0.30239492    -0.75600
O296        O  0.92138980  0.48605508  0.38882262    -0.83100
Mg297      Mg  0.78395410  0.40704554  0.27000692     1.58000
C298        C  0.94931939  0.45749090  0.21078741     0.92300
O299        O  0.75681108  0.36578494  0.23951363    -0.81400
H300        H  0.86829144  0.37531052  0.22028897    -0.06700
C301        C  0.89939094  0.48749900  0.27435181     0.87200
O302        O  0.84758503  0.39362603  0.36579838    -0.75900
O303        O  0.81724968  0.41892874  0.22777103    -0.88600
O304        O  0.92662656  0.45101400  0.19305200    -0.81500
C305        C  0.85236796  0.42286957  0.11993715     0.92400
C306        C  0.75467692  0.34977886  0.21077048     0.92200
Mg307      Mg  0.91667445  0.44537767  0.29713849     1.58000
O308        O  0.94602064  0.48409040  0.33742962    -0.81400
O309        O  0.89274373  0.40474956  0.26101590    -0.75600
O310        O  0.83162204  0.40406785  0.13959895    -0.81500
O311        O  0.74961694  0.39591888  0.31181320    -0.83200
O312        O  0.86428820  0.44216971  0.42842776    -0.81500
C313        C  0.87493782  0.39576189  0.23283268     0.86700
O314        O  0.88289313  0.43144539  0.34041543    -0.88600
O315        O  0.89752948  0.46510287  0.26419858    -0.88700
O316        O  0.89223712  0.49091263  0.30924532    -0.75800
Mg317      Mg  0.82174428  0.38429448  0.20297509     1.58000
O318        O  0.87533141  0.43999074  0.13683197    -0.83200
H319        H  0.79707404  0.35078690  0.32147546    -0.06900
O320        O  0.83510804  0.44322512  0.34579378    -0.88400
H321        H  0.83449006  0.47906937  0.34198870    -0.06700
H322        H  0.88639257  0.39894677  0.35937527    -0.06900
C323        C  0.82637346  0.45796596  0.33101749     0.86700
C324        C  0.80254823  0.36622328  0.29798587     0.87200
C325        C  0.87307730  0.40785059  0.35542589     0.87300
H326        H  0.90667886  0.50435985  0.25274616    -0.06900
O327        O  0.84951855  0.45912632  0.20322134    -0.75900
Mg328      Mg  0.87722485  0.46402263  0.36665581     1.58000
H329        H  0.80882202  0.44831737  0.20663828    -0.06900
C330        C  0.74928082  0.40026800  0.34904486     0.92300
O331        O  0.81867068  0.41236969  0.43176006    -0.83100
C332        C  0.84231092  0.42642126  0.44847228     0.92300
O333        O  0.77526853  0.35527166  0.18780881    -0.83100
Mg334      Mg  0.88699462  0.45257074  0.20207188     1.58200
O335        O  0.76995409  0.40515970  0.37145739    -0.81400
O336        O  0.95130458  0.45951264  0.24915972    -0.83100
O337        O  0.80377801  0.39057393  0.80705876    -0.88700
C338        C  0.82399278  0.43928775  0.70825801     0.87300
Mg339      Mg  0.81217766  0.40549914  0.86682731     1.58100
O340        O  0.86511374  0.40868175  0.72257387    -0.88500
O341        O  0.81181181  0.36297765  0.76875558    -0.75800
C342        C  0.94608202  0.49917230  0.86694322     0.92400
O343        O  0.81142939  0.45169941  0.79646164    -0.75600
O344        O  0.92322716  0.49206249  0.88452519    -0.83100
Mg345      Mg  0.78576022  0.40811922  0.76823601     1.58000
C346        C  0.95093661  0.45884425  0.71059711     0.92300
O347        O  0.75785386  0.36550037  0.74247213    -0.81400
H348        H  0.86989383  0.37516437  0.72542120    -0.06700
C349        C  0.89939685  0.48872915  0.76906172     0.87200
O350        O  0.85014934  0.39863841  0.86751414    -0.75900
O351        O  0.81664097  0.41691591  0.72567929    -0.88600
O352        O  0.92796389  0.45011215  0.69217825    -0.81500
C353        C  0.85215171  0.41754530  0.62021375     0.92400
C354        C  0.75564241  0.34838533  0.71541972     0.92200
Mg355      Mg  0.91807531  0.44873219  0.79619042     1.58000
O356        O  0.94658211  0.48958422  0.83208062    -0.81400
O357        O  0.89473385  0.40644178  0.76364196    -0.75600
O358        O  0.83157484  0.39979975  0.64120784    -0.81500
O359        O  0.75223162  0.40022996  0.81061098    -0.83200
O360        O  0.86741997  0.44833218  0.92634476    -0.81500
C361        C  0.87638996  0.39600584  0.73624620     0.86700
O362        O  0.88471875  0.43570713  0.83952570    -0.88600
O363        O  0.89797564  0.46619615  0.76095451    -0.88700
O364        O  0.89281662  0.49345727  0.80363179    -0.75800
Mg365      Mg  0.82233027  0.38312076  0.70626423     1.58000
O366        O  0.87525294  0.43539924  0.63604633    -0.83200
H367        H  0.79870022  0.35406545  0.82659219    -0.06900
O368        O  0.83685152  0.44716268  0.84331057    -0.88400
H369        H  0.83671465  0.48292009  0.83444910    -0.06700
H370        H  0.88907238  0.40426862  0.86106104    -0.06900
C371        C  0.82846655  0.46133639  0.82569762     0.86700
C372        C  0.80409957  0.36853893  0.80177643     0.87200
C373        C  0.87545110  0.41272749  0.85627242     0.87300
H374        H  0.90591612  0.50459895  0.74599371    -0.06900
O375        O  0.84926122  0.45595090  0.69975119    -0.75900
Mg376      Mg  0.87901461  0.46876521  0.86331331     1.58000
H377        H  0.80872025  0.44555459  0.70232128    -0.06900
C378        C  0.75208457  0.40477514  0.84782175     0.92300
O379        O  0.82180548  0.41965466  0.93128750    -0.83100
C380        C  0.84577806  0.43306542  0.94730603     0.92300
O381        O  0.77591992  0.35361948  0.69194632    -0.83100
Mg382      Mg  0.88741158  0.45085869  0.70004772     1.58200
O383        O  0.77238705  0.40943050  0.87081939    -0.81400
O384        O  0.95252581  0.46229225  0.74871229    -0.83100
O385        O  0.61446160  0.19866944  0.10991872    -0.88700
C386        C  0.56076342  0.17459247  0.20317454     0.87300
Mg387      Mg  0.60163261  0.19115337  0.04886286     1.58100
O388        O  0.59280257  0.13442121  0.19334390    -0.88500
O389        O  0.63951763  0.18896162  0.15117097    -0.75800
C390        C  0.51137894  0.05554579  0.04135181     0.92400
O391        O  0.55299067  0.18976198  0.11454255    -0.75600
O392        O  0.51879412  0.07881959  0.02430427    -0.83100
Mg393      Mg  0.59502523  0.21535743  0.14708623     1.58000
C394        C  0.54322211  0.04761171  0.20046399     0.92300
O395        O  0.63625605  0.24314727  0.17740342    -0.81400
H396        H  0.62668040  0.13045729  0.19535197    -0.06700
C397        C  0.51585601  0.09954431  0.13902516     0.87200
O398        O  0.60999421  0.15380380  0.04939232    -0.75900
O399        O  0.58414898  0.18306108  0.18868558    -0.88600
O400        O  0.55154082  0.07043728  0.21955567    -0.81500
C401        C  0.57801588  0.14490668  0.29490226     0.92400
C402        C  0.65170384  0.24427856  0.20632100     0.92200
Mg403      Mg  0.55812324  0.08272691  0.11637375     1.58000
O404        O  0.51977852  0.05429848  0.07660524    -0.81400
O405        O  0.59818518  0.10593625  0.15362930    -0.75600
O406        O  0.59648305  0.16609273  0.27534758    -0.81500
O407        O  0.60482024  0.25007935  0.10530837    -0.83200
O408        O  0.56344197  0.13609600  0.98686963    -0.81500
C409        C  0.60658499  0.12378323  0.18184740     0.86700
O410        O  0.57269364  0.11762244  0.07450924    -0.88600
O411        O  0.53808291  0.10130113  0.14936954    -0.88700
O412        O  0.51270551  0.10708310  0.10421765    -0.75800
Mg413      Mg  0.61673575  0.17696304  0.21185366     1.58000
O414        O  0.56189494  0.12186938  0.27725407    -0.83200
H415        H  0.65143337  0.20347504  0.09439123    -0.06900
O416        O  0.55980786  0.16474142  0.06941327    -0.88400
H417        H  0.52364326  0.16428919  0.07437817    -0.06700
H418        H  0.60585909  0.11528751  0.05624006    -0.06900
C419        C  0.54472357  0.17270760  0.08514874     0.86700
C420        C  0.63583937  0.19770730  0.11759795     0.87200
C421        C  0.59638867  0.12814425  0.05991493     0.87300
H422        H  0.49891653  0.09199740  0.16037824    -0.06900
O423        O  0.54433627  0.14889892  0.21023786    -0.75900
Mg424      Mg  0.54020232  0.12282242  0.04750117     1.58000
H425        H  0.55353917  0.18929729  0.20783224    -0.06900
C426        C  0.59867514  0.24990666  0.06862254     0.92300
O427        O  0.59020370  0.18206159  0.98295706    -0.83100
C428        C  0.57863394  0.15811591  0.96638712     0.92300
O429        O  0.64551098  0.22316471  0.22869926    -0.83100
Mg430      Mg  0.55007079  0.11088817  0.21151600     1.58200
O431        O  0.59471421  0.22996560  0.04494591    -0.81400
O432        O  0.54227454  0.04666229  0.16210144    -0.83100
O433        O  0.61172893  0.19685899  0.60857175    -0.88700
C434        C  0.56300695  0.17038651  0.70729875     0.87300
Mg435      Mg  0.59618835  0.18993867  0.54904712     1.58100
O436        O  0.59763038  0.13331739  0.69060419    -0.88500
O437        O  0.63991754  0.18868596  0.64536366    -0.75800
C438        C  0.51281930  0.05337783  0.54184052     0.92400
O439        O  0.54961632  0.18536522  0.62203197    -0.75600
O440        O  0.51719971  0.07637680  0.52695039    -0.83100
Mg441      Mg  0.59311505  0.21199118  0.65009053     1.58000
C442        C  0.55258190  0.04651273  0.69679637     0.92300
O443        O  0.63571408  0.24068218  0.67510694    -0.81400
H444        H  0.63286176  0.13188590  0.68729826    -0.06700
C445        C  0.51813577  0.09522695  0.64379198     0.87200
O446        O  0.60646919  0.15405937  0.54385200    -0.75900
O447        O  0.58565395  0.17975535  0.69004830    -0.88600
O448        O  0.55888542  0.06817092  0.71792673    -0.81500
C449        C  0.58708981  0.14295203  0.79404215     0.92400
C450        C  0.65271944  0.24275644  0.70212519     0.92200
Mg451      Mg  0.56203714  0.08253642  0.61346326     1.58000
O452        O  0.52297785  0.05238685  0.57592395    -0.81400
O453        O  0.60345091  0.10728200  0.64673585    -0.75600
O454        O  0.60380731  0.16436175  0.77327716    -0.81500
O455        O  0.59943818  0.24667785  0.61093254    -0.83200
O456        O  0.55678739  0.13506474  0.48809674    -0.81500
C457        C  0.61202327  0.12427671  0.67595993     0.86700
O458        O  0.57216321  0.11725803  0.57275207    -0.88600
O459        O  0.54132885  0.09826451  0.65126563    -0.88700
O460        O  0.51284351  0.10265459  0.61026339    -0.75800
Mg461      Mg  0.62053093  0.17595762  0.70838385     1.58000
O462        O  0.57066174  0.11958486  0.77736641    -0.83200
H463        H  0.64819555  0.20292287  0.58792580    -0.06900
O464        O  0.55557024  0.16198784  0.57332724    -0.88400
H465        H  0.51888608  0.15951135  0.58383685    -0.06700
H466        H  0.60450958  0.11634681  0.54771173    -0.06900
C467        C  0.54054340  0.16871781  0.59218597     0.86700
C468        C  0.63388463  0.19677601  0.61297522     0.87200
C469        C  0.59463791  0.12848218  0.55455266     0.87300
H470        H  0.50216027  0.08664139  0.66668590    -0.06900
O471        O  0.54793913  0.14457954  0.71493835    -0.75900
Mg472      Mg  0.53702907  0.12013189  0.55096737     1.58000
H473        H  0.55514634  0.18433402  0.71401994    -0.06900
C474        C  0.59334498  0.24781833  0.57463614     0.92300
O475        O  0.58131166  0.18138944  0.48474698    -0.83100
C476        C  0.57006558  0.15760029  0.46779005     0.92300
O477        O  0.64781196  0.22231475  0.72514707    -0.83100
Mg478      Mg  0.55586361  0.10802518  0.71264300     1.58200
O479        O  0.58877231  0.22839127  0.54960256    -0.81400
O480        O  0.55110332  0.04695795  0.65848149    -0.83100
O481        O  0.38751892  0.80195180  0.35662817    -0.88700
C482        C  0.44148629  0.82072542  0.44972401     0.87300
Mg483      Mg  0.40129531  0.80888818  0.29544911     1.58100
O484        O  0.41220100  0.86428855  0.44227890    -0.88500
O485        O  0.36311740  0.81202683  0.39868340    -0.75800
C486        C  0.49492164  0.94300220  0.28997936     0.92400
O487        O  0.44608684  0.80425786  0.35887710    -0.75600
O488        O  0.48738998  0.92007444  0.27185723    -0.83100
Mg489      Mg  0.40351970  0.78119063  0.39174113     1.58000
C490        C  0.46378586  0.94941811  0.45121762     0.92300
O491        O  0.36250437  0.75592524  0.42391166    -0.81400
H492        H  0.37949589  0.87017859  0.44379649    -0.06700
C493        C  0.48947565  0.89681052  0.38687969     0.87200
O494        O  0.39530506  0.84766179  0.29519667    -0.75900
O495        O  0.41817544  0.81456186  0.43484332    -0.88600
O496        O  0.45737862  0.92679010  0.46958620    -0.81500
C497        C  0.42547696  0.85115264  0.54238264     0.92400
C498        C  0.34778756  0.75498438  0.45369590     0.92200
Mg499      Mg  0.44868074  0.91560137  0.36542784     1.58000
O500        O  0.48757774  0.94344187  0.32632492    -0.81400
O501        O  0.40841545  0.89342941  0.40182520    -0.75600
O502        O  0.40564778  0.83132713  0.52277291    -0.81500
O503        O  0.38772550  0.74656892  0.34910661    -0.83200
O504        O  0.44215658  0.86338969  0.23443876    -0.81500
C505        C  0.39944045  0.87593602  0.43046958     0.86700
O506        O  0.43331894  0.88174529  0.32212674    -0.88600
O507        O  0.46735767  0.89516703  0.39751222    -0.88700
O508        O  0.49262559  0.88998519  0.35160871    -0.75800
Mg509      Mg  0.38556177  0.82213713  0.45992234     1.58000
O510        O  0.44358167  0.87354118  0.52495832    -0.83200
H511        H  0.35146440  0.79935907  0.34111556    -0.06900
O512        O  0.44326645  0.83330284  0.31664480    -0.88400
H513        H  0.47744364  0.82991467  0.32119441    -0.06700
H514        H  0.40230516  0.88726191  0.30236893    -0.06900
C515        C  0.45647906  0.82287449  0.33148429     0.86700
C516        C  0.36668635  0.80388146  0.36449118     0.87200
C517        C  0.41017277  0.87304198  0.30641769     0.87300
H518        H  0.50632210  0.90371394  0.40827511    -0.06900
O519        O  0.45942499  0.84587054  0.45730525    -0.75900
Mg520      Mg  0.46505754  0.87555354  0.29494552     1.58000
H521        H  0.44681174  0.80453450  0.45368653    -0.06900
C522        C  0.39828441  0.74757187  0.31515029     0.92300
O523        O  0.41361933  0.81766954  0.22957826    -0.83100
C524        C  0.42632940  0.84188241  0.21363377     0.92300
O525        O  0.35473691  0.77616831  0.47624153    -0.83100
Mg526      Mg  0.45559045  0.88512528  0.45968995     1.58200
O527        O  0.40672642  0.76902520  0.29244225    -0.81400
O528        O  0.46444733  0.95059545  0.41279072    -0.83100
O529        O  0.39206869  0.80431210  0.85458037    -0.88700
C530        C  0.43879560  0.82432414  0.95485011     0.87300
Mg531      Mg  0.40889220  0.81148395  0.79563503     1.58100
O532        O  0.41044117  0.86720173  0.93806819    -0.88500
O533        O  0.36495599  0.81417663  0.89089908    -0.75800
C534        C  0.50263633  0.94566666  0.79299192     0.92400
O535        O  0.45151391  0.80953078  0.86890393    -0.75600
O536        O  0.49578990  0.92217140  0.77717567    -0.83100
Mg537      Mg  0.40719066  0.78536079  0.89538247     1.58000
C538        C  0.46177020  0.95357572  0.94720941     0.92300
O539        O  0.36397585  0.75874823  0.91976823    -0.81400
H540        H  0.37754795  0.87259619  0.93282347    -0.06700
C541        C  0.49072772  0.90003306  0.89401669     0.87200
O542        O  0.40268400  0.85001371  0.79146065    -0.75900
O543        O  0.41679424  0.81722150  0.93680307    -0.88600
O544        O  0.45347165  0.93124693  0.96781495    -0.81500
C545        C  0.41764127  0.85348157  0.04122667     0.92400
C546        C  0.34688026  0.75726670  0.94619536     0.92200
Mg547      Mg  0.45161512  0.91877527  0.86295852     1.58000
O548        O  0.49293112  0.94740960  0.82712526    -0.81400
O549        O  0.40918128  0.89621875  0.89449217    -0.75600
O550        O  0.39998199  0.83335495  0.01946176    -0.81500
O551        O  0.39779499  0.75080368  0.85430863    -0.83200
O552        O  0.45262998  0.86578346  0.73663348    -0.81500
C553        C  0.39833828  0.87857484  0.92279232     0.86700
O554        O  0.43899058  0.88456137  0.82092709    -0.88600
O555        O  0.46832170  0.89899011  0.90092518    -0.88700
O556        O  0.49574282  0.89273213  0.86018527    -0.75800
Mg557      Mg  0.38379691  0.82437493  0.95434930     1.58000
O558        O  0.43558151  0.87701338  0.02614919    -0.83200
H559        H  0.35693089  0.80105835  0.83294405    -0.06900
O560        O  0.44953307  0.83611099  0.82138804    -0.88400
H561        H  0.48414551  0.83455216  0.83277424    -0.06700
H562        H  0.40877202  0.88941122  0.79621222    -0.06900
C563        C  0.46255854  0.82695275  0.84020792     0.86700
C564        C  0.37068205  0.80590656  0.85845384     0.87200
C565        C  0.41668055  0.87547197  0.80261182     0.87300
H566        H  0.50621581  0.90682251  0.91753972    -0.06900
O567        O  0.45561771  0.84966294  0.96339512    -0.75900
Mg568      Mg  0.47202576  0.87812196  0.79997759     1.58000
H569        H  0.44456900  0.80872366  0.96150485    -0.06900
C570        C  0.40631750  0.75089937  0.81905972     0.92300
O571        O  0.42484140  0.82001042  0.73193662    -0.83100
C572        C  0.43818472  0.84396654  0.71552603     0.92300
O573        O  0.35265585  0.77801611  0.96915553    -0.83100
Mg574      Mg  0.45214494  0.88899877  0.96183076     1.58200
O575        O  0.41358538  0.77163605  0.79539149    -0.81400
O576        O  0.46431448  0.95360460  0.90908089    -0.83100
C577        C  0.44918619  0.87158039  0.60737433    -0.20700
C578        C  0.42808094  0.84842546  0.58669722    -0.07300
C579        C  0.41081092  0.82362660  0.60880444     0.13600
C580        C  0.41508941  0.82300444  0.65033902    -0.20700
C581        C  0.43598189  0.84628618  0.67104465    -0.07300
C582        C  0.45336917  0.87096039  0.64888027     0.13600
C583        C  0.47644654  0.89694300  0.66817330    -0.24100
H584        H  0.46260967  0.89065262  0.59101603     0.14900
H585        H  0.40158405  0.80405084  0.66688516     0.14900
C586        C  0.38779784  0.79750279  0.58952486    -0.24000
H587        H  0.48849559  0.91367295  0.64581866     0.05100
H588        H  0.49125629  0.89203227  0.68355996     0.08400
H589        H  0.46739025  0.90541160  0.68992818     0.08400
H590        H  0.39654516  0.78985541  0.56595656     0.08300
H591        H  0.37199537  0.80189091  0.57631133     0.08300
H592        H  0.37684582  0.78027652  0.61160931     0.05100
C593        C  0.41486861  0.82188394  0.14451831    -0.20700
C594        C  0.42306451  0.84512760  0.16975695    -0.07300
C595        C  0.42778560  0.87069919  0.15245767     0.13600
C596        C  0.42524761  0.87243273  0.11066564    -0.20700
C597        C  0.41776335  0.84940186  0.08541959    -0.07300
C598        C  0.41216436  0.82361605  0.10274372     0.13600
C599        C  0.40443501  0.79804803  0.07748936    -0.24100
H600        H  0.41107271  0.80225536  0.15745052     0.14900
H601        H  0.42921592  0.89206361  0.09749889     0.14900
C602        C  0.43494200  0.89624819  0.17746739    -0.24000
H603        H  0.40240923  0.78033295  0.09591329     0.05100
H604        H  0.42075460  0.80293425  0.05446640     0.08400
H605        H  0.38407209  0.79092481  0.06259007     0.08400
H606        H  0.45573478  0.90442361  0.19148669     0.08300
H607        H  0.41887980  0.89091549  0.20107422     0.08300
H608        H  0.43579814  0.91344472  0.15902388     0.05100
C609        C  0.55152589  0.02126086  0.75985714    -0.20700
C610        C  0.54447322  0.01981225  0.71874873    -0.07300
C611        C  0.52651738  0.99310732  0.70182911     0.13600
C612        C  0.51485196  0.96942884  0.72682983    -0.20700
C613        C  0.51992448  0.97127105  0.76844762    -0.07300
C614        C  0.53947747  0.99743853  0.78483959     0.13600
C615        C  0.54797183  0.00037995  0.82835504    -0.24100
H616        H  0.56576334  0.04140547  0.77305994     0.14900
H617        H  0.50017852  0.94938519  0.71400336     0.14900
C618        C  0.51801341  0.98915124  0.65811308    -0.24000
H619        H  0.56445700  0.02207186  0.83566280     0.05100
H620        H  0.55614274  0.98613124  0.83520616     0.08400
H621        H  0.52988933  0.99514993  0.84789749     0.08400
H622        H  0.53670313  0.99677205  0.63868346     0.08300
H623        H  0.50680353  0.00058629  0.65107474     0.08300
H624        H  0.50379859  0.96680822  0.65055161     0.05100
C625        C  0.48431310  0.00147570  0.53876089    -0.20700
C626        C  0.49672488  0.02707974  0.51816207    -0.07300
C627        C  0.49581130  0.02676448  0.47541174     0.13600
C628        C  0.48358639  0.00106761  0.45492065    -0.20700
C629        C  0.47252951  0.97542058  0.47542569    -0.07300
C630        C  0.47233198  0.97575812  0.51833533     0.13600
C631        C  0.46018941  0.94947660  0.54355286    -0.24100
H632        H  0.48471723  0.00159137  0.57136707     0.14900
H633        H  0.48374807  0.00119739  0.42232901     0.14900
C634        C  0.50885739  0.05324488  0.45061110    -0.24000
H635        H  0.46073438  0.95402484  0.57619718     0.05100
H636        H  0.47239841  0.93873064  0.53937011     0.08400
H637        H  0.43806919  0.93534786  0.53524382     0.08400
H638        H  0.53139057  0.06606565  0.45767048     0.08300
H639        H  0.49825734  0.06538771  0.45677701     0.08300
H640        H  0.50701597  0.04883038  0.41781320     0.05100
C641        C  0.59928177  0.17319122  0.85493483    -0.20700
C642        C  0.58618919  0.14600497  0.83866779    -0.07300
C643        C  0.57200023  0.12296550  0.86524419     0.13600
C644        C  0.57032487  0.12790453  0.90631743    -0.20700
C645        C  0.58245274  0.15512316  0.92237917    -0.07300
C646        C  0.59776077  0.17813216  0.89609199     0.13600
C647        C  0.61253257  0.20807400  0.91046352    -0.24100
H648        H  0.61047328  0.19098975  0.83512341     0.14900
H649        H  0.55912284  0.11005665  0.92604124     0.14900
C650        C  0.55868148  0.09297215  0.85126906    -0.24000
H651        H  0.62344992  0.22308002  0.88559374     0.05100
H652        H  0.62848764  0.21121253  0.93322767     0.08400
H653        H  0.59728260  0.21332727  0.92347523     0.08400
H654        H  0.57434019  0.08941243  0.83565184     0.08300
H655        H  0.54096333  0.08802382  0.83088886     0.08300
H656        H  0.55029164  0.07799461  0.87676885     0.05100
C657        C  0.59637373  0.17124644  0.35916965    -0.20700
C658        C  0.57532493  0.14752825  0.33935772    -0.07300
C659        C  0.55221838  0.12764757  0.36242444     0.13600
C660        C  0.55109656  0.13202299  0.40379542    -0.20700
C661        C  0.57219305  0.15558545  0.42342034    -0.07300
C662        C  0.59520826  0.17553611  0.40064132     0.13600
C663        C  0.61917006  0.20098075  0.41973108    -0.24100
H664        H  0.61416558  0.18659664  0.34217631     0.14900
H665        H  0.53345686  0.11671498  0.42112108     0.14900
C666        C  0.52851359  0.10154307  0.34446711    -0.24000
H667        H  0.63597161  0.21338856  0.39772307     0.05100
H668        H  0.62833431  0.19447182  0.44422595     0.08400
H669        H  0.61187329  0.21491344  0.43192335     0.08400
H670        H  0.53654999  0.08800422  0.33358449     0.08300
H671        H  0.51871589  0.10699050  0.31960765     0.08300
H672        H  0.51196759  0.08919688  0.36685040     0.05100
C673        C  0.50662772  0.99212028  0.28129139    -0.20700
C674        C  0.51020293  0.97007690  0.26762714    -0.07300
C675        C  0.52552189  0.97393036  0.23155897     0.13600
C676        C  0.53668367  0.99959805  0.21062706    -0.20700
C677        C  0.53268738  0.02139409  0.22437183    -0.07300
C678        C  0.51700314  0.01723753  0.26000544     0.13600
C679        C  0.50956428  0.03846937  0.27494436    -0.24100
H680        H  0.49438077  0.98928193  0.30811967     0.14900
H681        H  0.54834452  0.00256412  0.18312915     0.14900
C682        C  0.53040241  0.95137634  0.21485507    -0.24000
H683        H  0.49560317  0.03090080  0.30158097     0.05100
H684        H  0.49872744  0.04333265  0.25090416     0.08400
H685        H  0.52872541  0.05769819  0.28407768     0.08400
H686        H  0.51038950  0.93315690  0.20518587     0.08300
H687        H  0.54037130  0.94479542  0.23803703     0.08300
H688        H  0.54429488  0.95875024  0.18813963     0.05100
C689        C  0.49809022  0.03110141  0.97577478    -0.20700
C690        C  0.49457351  0.02945635  0.01773321    -0.07300
C691        C  0.47698498  0.00303082  0.03541870     0.13600
C692        C  0.46502952  0.97899257  0.01101520    -0.20700
C693        C  0.47046815  0.98034701  0.96935969    -0.07300
C694        C  0.48661041  0.00714191  0.95143615     0.13600
C695        C  0.49327661  0.01108147  0.90713554    -0.24100
H696        H  0.51133408  0.05131464  0.96194804     0.14900
H697        H  0.45218084  0.95880470  0.02509908     0.14900
C698        C  0.47057288  0.99983601  0.07983004    -0.24000
H699        H  0.50595641  0.03350021  0.89874853     0.05100
H700        H  0.47375311  0.00205160  0.88932770     0.08400
H701        H  0.50549532  0.00093231  0.89904423     0.08400
H702        H  0.46226012  0.01362373  0.08884004     0.08300
H703        H  0.48960682  0.00523065  0.09740185     0.08300
H704        H  0.45474790  0.97800381  0.08775463     0.05100
C705        C  0.72038185  0.30851379  0.67504279    -0.20700
C706        C  0.72896596  0.32150657  0.71260148    -0.07300
C707        C  0.71237224  0.30804730  0.74715263     0.13600
C708        C  0.68789148  0.28210829  0.74292808    -0.20700
C709        C  0.67911782  0.26956284  0.70526871    -0.07300
C710        C  0.69556770  0.28289646  0.67080293     0.13600
C711        C  0.68767297  0.26983261  0.62956012    -0.24100
H712        H  0.73305329  0.31859363  0.64876060     0.14900
H713        H  0.67520445  0.27174956  0.76909400     0.14900
C714        C  0.72039232  0.32025936  0.78891356    -0.24000
H715        H  0.70372446  0.28242381  0.60669525     0.05100
H716        H  0.66785574  0.26826960  0.61958947     0.08400
H717        H  0.68545703  0.24872130  0.63028184     0.08400
H718        H  0.71975185  0.33999375  0.79083058     0.08300
H719        H  0.74155689  0.32421185  0.79644285     0.08300
H720        H  0.70586300  0.30591289  0.81214594     0.05100
C721        C  0.72863937  0.29817307  0.20402885    -0.20700
C722        C  0.72793661  0.32317776  0.20693472    -0.07300
C723        C  0.70192896  0.32189417  0.21194059     0.13600
C724        C  0.67744029  0.29572577  0.21339660    -0.20700
C725        C  0.67822747  0.27077466  0.21136110    -0.07300
C726        C  0.70412872  0.27199384  0.20640428     0.13600
C727        C  0.70589268  0.24575032  0.20221231    -0.24100
H728        H  0.74855470  0.29912220  0.20095686     0.14900
H729        H  0.65744282  0.29467294  0.21588029     0.14900
C730        C  0.69967382  0.34796991  0.21470236    -0.24000
H731        H  0.72768746  0.25051011  0.19781628     0.05100
H732        H  0.69352583  0.23355220  0.17581691     0.08400
H733        H  0.69768511  0.23281838  0.22979086     0.08400
H734        H  0.70990171  0.36157454  0.18824741     0.08300
H735        H  0.70958083  0.35956779  0.24274760     0.08300
H736        H  0.67762986  0.34297872  0.21528643     0.05100
C737        C  0.83200671  0.39774337  0.51034725    -0.20700
C738        C  0.84441728  0.42433232  0.49246163    -0.07300
C739        C  0.85860953  0.44838339  0.51679862     0.13600
C740        C  0.86105738  0.44526081  0.55814190    -0.20700
C741        C  0.84896006  0.41873049  0.57616444    -0.07300
C742        C  0.83402448  0.39458712  0.55197298     0.13600
C743        C  0.82098359  0.36552408  0.56942276    -0.24100
H744        H  0.82100555  0.37935422  0.49152434     0.14900
H745        H  0.87194027  0.46377098  0.57676665     0.14900
C746        C  0.86994420  0.47737401  0.49974324    -0.24000
H747        H  0.81163739  0.34922369  0.54570982     0.05100
H748        H  0.80411552  0.36202577  0.59067782     0.08400
H749        H  0.83703958  0.36275193  0.58534374     0.08400
H750        H  0.85286111  0.47916708  0.48527326     0.08300
H751        H  0.88625586  0.48169389  0.47718518     0.08300
H752        H  0.87935867  0.49370954  0.52339230     0.05100
C753        C  0.87260922  0.42950863  0.05169453    -0.20700
C754        C  0.85000018  0.42495945  0.07589885    -0.07300
C755        C  0.82619062  0.42337152  0.05774370     0.13600
C756        C  0.82568603  0.42639905  0.01588105    -0.20700
C757        C  0.84826435  0.43087669  0.99149611    -0.07300
C758        C  0.87195319  0.43207026  0.00974298     0.13600
C759        C  0.89610628  0.43472940  0.98538777    -0.24100
H760        H  0.89074952  0.43053330  0.06571464     0.14900
H761        H  0.80751567  0.42543993  0.00209767     0.14900
C762        C  0.80163197  0.41946558  0.08231886    -0.24000
H763        H  0.91187859  0.43355277  0.00459824     0.05100
H764        H  0.90671740  0.45514222  0.96968809     0.08400
H765        H  0.88854152  0.41751484  0.96303798     0.08400
H766        H  0.80862861  0.43625279  0.10528370     0.08300
H767        H  0.79157658  0.39874788  0.09736203     0.08300
H768        H  0.78559682  0.42033642  0.06334700     0.05100
C769        C  0.29484585  0.67773758  0.46087391    -0.20700
C770        C  0.26977620  0.67793707  0.45621634    -0.07300
C771        C  0.27047854  0.70390045  0.45456496     0.13600
C772        C  0.29627091  0.72891605  0.45650877    -0.20700
C773        C  0.32132103  0.72858694  0.45986798    -0.07300
C774        C  0.32057788  0.70266081  0.46229510     0.13600
C775        C  0.34685195  0.70119271  0.46722116    -0.24100
H776        H  0.29425803  0.65787199  0.46349886     0.14900
H777        H  0.29696899  0.74884053  0.45410813     0.14900
C778        C  0.24411820  0.70537029  0.45202926    -0.24000
H779        H  0.34230589  0.67929729  0.47081607     0.05100
H780        H  0.35826802  0.71310536  0.49438513     0.08400
H781        H  0.36039003  0.71006186  0.44040036     0.08400
H782        H  0.23048793  0.69433520  0.47811510     0.08300
H783        H  0.23294903  0.69551307  0.42367918     0.08300
H784        H  0.24847773  0.72731736  0.45231533     0.05100
C785        C  0.00205755  0.47663392  0.70740522    -0.20700
C786        C  0.97678877  0.46688738  0.68662546    -0.07300
C787        C  0.97748676  0.46762339  0.64373892     0.13600
C788        C  0.00319337  0.47911342  0.62368507    -0.20700
C789        C  0.02852723  0.49050460  0.64459293    -0.07300
C790        C  0.02780247  0.48863672  0.68730509     0.13600
C791        C  0.05388848  0.50040403  0.71258345    -0.24100
H792        H  0.00188031  0.47599257  0.73998351     0.14900
H793        H  0.00353077  0.48018062  0.59111657     0.14900
C794        C  0.95167865  0.45743401  0.61816447    -0.24000
H795        H  0.04916678  0.49751523  0.74528969     0.05100
H796        H  0.06707704  0.52322498  0.70713281     0.08400
H797        H  0.06565896  0.48958468  0.70530513     0.08400
H798        H  0.94166337  0.47016197  0.62414473     0.08300
H799        H  0.93691828  0.43501382  0.62447103     0.08300
H800        H  0.95648431  0.45928197  0.58548607     0.05100
C801        C  0.99698772  0.52121316  0.45959885    -0.20700
C802        C  0.02245683  0.53460544  0.43889210    -0.07300
C803        C  0.02187747  0.53746921  0.39634521     0.13600
C804        C  0.99615610  0.52471385  0.37598692    -0.20700
C805        C  0.97078505  0.50948275  0.39653541    -0.07300
C806        C  0.97133386  0.50869918  0.43930912     0.13600
C807        C  0.94520158  0.49388329  0.46428747    -0.24100
H808        H  0.99703188  0.51933704  0.49204387     0.14900
H809        H  0.99591873  0.52604934  0.34347178     0.14900
C810        C  0.04800602  0.55368786  0.37161847    -0.24000
H811        H  0.94974435  0.49477808  0.49697403     0.05100
H812        H  0.93302038  0.47147249  0.45570617     0.08400
H813        H  0.93268430  0.50423248  0.45977447     0.08400
H814        H  0.06022350  0.54277947  0.37132793     0.08300
H815        H  0.06073778  0.57512031  0.38401742     0.08300
H816        H  0.04322882  0.55578299  0.33978647     0.05100
C817        C  0.28088658  0.68849952  0.91992409    -0.20700
C818        C  0.26777698  0.68063156  0.95736844    -0.07300
C819        C  0.28033947  0.69839783  0.99103243     0.13600
C820        C  0.30588552  0.72329604  0.98636253    -0.20700
C821        C  0.31963108  0.73078960  0.94920714    -0.07300
C822        C  0.30674269  0.71309139  0.91532912     0.13600
C823        C  0.31958162  0.71990695  0.87386548    -0.24100
H824        H  0.27117079  0.67488371  0.89431634     0.14900
H825        H  0.31542187  0.73678349  0.01213620     0.14900
C826        C  0.26662584  0.69171631  0.03188774    -0.24000
H827        H  0.30561227  0.70471263  0.85096491     0.05100
H828        H  0.33914988  0.71905880  0.87366681     0.08400
H829        H  0.32380409  0.74098520  0.86452834     0.08400
H830        H  0.26551002  0.67253339  0.04431277     0.08300
H831        H  0.24535574  0.68874755  0.02941369     0.08300
H832        H  0.27843537  0.70882767  0.05380079     0.05100
C833        C  0.99952796  0.47181668  0.20490247    -0.20700
C834        C  0.97440124  0.46475910  0.18547864    -0.07300
C835        C  0.97459021  0.46725780  0.14271140     0.13600
C836        C  0.99996673  0.47878117  0.12180335    -0.20700
C837        C  0.02540683  0.48820345  0.14173436    -0.07300
C838        C  0.02491568  0.48349195  0.18394141     0.13600
C839        C  0.05090767  0.49162919  0.20804277    -0.24100
H840        H  0.99958260  0.46933545  0.23723289     0.14900
H841        H  0.99999635  0.48155631  0.08952267     0.14900
C842        C  0.94863501  0.45893171  0.11820704    -0.24000
H843        H  0.04629374  0.48600406  0.24032666     0.05100
H844        H  0.06508031  0.51461042  0.20656869     0.08400
H845        H  0.06144373  0.48047982  0.19631597     0.08400
H846        H  0.93962326  0.47228069  0.12618917     0.08300
H847        H  0.93318834  0.43653481  0.12339729     0.08300
H848        H  0.95299147  0.46156000  0.08539207     0.05100
C849        C  0.16691727  0.59934532  0.80363071    -0.20700
C850        C  0.14771241  0.57548205  0.82507213    -0.07300
C851        C  0.13197989  0.54986005  0.80396890     0.13600
C852        C  0.13572927  0.54908032  0.76233740    -0.20700
C853        C  0.15494983  0.57293624  0.74107775    -0.07300
C854        C  0.17070114  0.59846588  0.76201475     0.13600
C855        C  0.19075564  0.62515073  0.74060092    -0.24100
H856        H  0.17886942  0.61899634  0.81946840     0.14900
H857        H  0.12370076  0.52954474  0.74622344     0.14900
C858        C  0.11175921  0.52294915  0.82481594    -0.24000
H859        H  0.19986536  0.64338582  0.76129209     0.05100
H860        H  0.17976092  0.62950289  0.71621454     0.08400
H861        H  0.20823481  0.62331693  0.72775417     0.08400
H862        H  0.09402935  0.52453751  0.83714639     0.08300
H863        H  0.12250517  0.51840931  0.84936008     0.08300
H864        H  0.10292475  0.50485676  0.80385967     0.05100
C865        C  0.16268452  0.59758547  0.25892784    -0.20700
C866        C  0.15080368  0.57110846  0.24091876    -0.07300
C867        C  0.13735715  0.54691642  0.26522963     0.13600
C868        C  0.13579807  0.54985868  0.30694219    -0.20700
C869        C  0.14773570  0.57636942  0.32507929    -0.07300
C870        C  0.16124859  0.60057517  0.30065427     0.13600
C871        C  0.17328124  0.62957261  0.31800685    -0.24100
H872        H  0.17284584  0.61606821  0.24007815     0.14900
H873        H  0.12564844  0.53130767  0.32565486     0.14900
C874        C  0.12575617  0.51805276  0.24762428    -0.24000
H875        H  0.18130032  0.64584599  0.29414864     0.05100
H876        H  0.19094437  0.63411913  0.33826114     0.08400
H877        H  0.15695604  0.63129895  0.33497398     0.08400
H878        H  0.14253550  0.51643628  0.23182603     0.08300
H879        H  0.10889316  0.51381717  0.22605934     0.08300
H880        H  0.11694796  0.50158142  0.27118086     0.05100
C881        C  0.99968392  0.53629824  0.95062568    -0.20700
C882        C  0.02361480  0.53843809  0.93277688    -0.07300
C883        C  0.02283502  0.53264686  0.89082002     0.13600
C884        C  0.99765151  0.52208342  0.86976969    -0.20700
C885        C  0.97294524  0.51697134  0.88872531    -0.07300
C886        C  0.97452917  0.52607065  0.92922609     0.13600
C887        C  0.95006949  0.52501069  0.95073595    -0.24100
H888        H  0.00036860  0.54183765  0.98204399     0.14900
H889        H  0.99706559  0.51638049  0.83845083     0.14900
C890        C  0.04778542  0.53606734  0.86759881    -0.24000
H891        H  0.95596180  0.53501286  0.98084952     0.05100
H892        H  0.93347389  0.50306501  0.95553449     0.08400
H893        H  0.94190904  0.53637695  0.93293118     0.08400
H894        H  0.05478671  0.52194912  0.88002430     0.08300
H895        H  0.06488536  0.55817114  0.86891763     0.08300
H896        H  0.04300702  0.53066952  0.83528504     0.05100
C897        C  0.41550727  0.71343636  0.83917411    -0.20700
C898        C  0.40899884  0.72642322  0.80793673    -0.07300
C899        C  0.40381426  0.71474008  0.76905104     0.13600
C900        C  0.40473770  0.69005417  0.76275481    -0.20700
C901        C  0.41069424  0.67673351  0.79433327    -0.07300
C902        C  0.41628989  0.68880175  0.83311855     0.13600
C903        C  0.42214015  0.67560486  0.86880236    -0.24100
H904        H  0.41979675  0.72255874  0.86902605     0.14900
H905        H  0.40064823  0.68104475  0.73285221     0.14900
C906        C  0.39634790  0.72748418  0.73459223    -0.24000
H907        H  0.42427886  0.68719684  0.89711036     0.05100
H908        H  0.44197754  0.67564761  0.86422455     0.08400
H909        H  0.40475384  0.65384878  0.87302107     0.08400
H910        H  0.41392086  0.74877639  0.72812215     0.08300
H911        H  0.37750353  0.72869851  0.74233043     0.08300
H912        H  0.39186482  0.71489433  0.70667809     0.05100
C913        C  0.29680273  0.60321301  0.58233862    -0.20700
C914        C  0.27584918  0.59848869  0.61067766    -0.07300
C915        C  0.28002820  0.59396155  0.65136118     0.13600
C916        C  0.30452803  0.59403436  0.66210694    -0.20700
C917        C  0.32522931  0.59850900  0.63367914    -0.07300
C918        C  0.32126782  0.60326022  0.59316929     0.13600
C919        C  0.34286100  0.60911971  0.56125936    -0.24100
H920        H  0.29413956  0.60685334  0.55106052     0.14900
H921        H  0.30739785  0.59028856  0.69327591     0.14900
C922        C  0.25913127  0.58910654  0.68392637    -0.24000
H923        H  0.33682702  0.61380421  0.53165538     0.05100
H924        H  0.34543438  0.59059237  0.55717857     0.08400
H925        H  0.36305042  0.62750527  0.57006322     0.08400
H926        H  0.23913268  0.56975146  0.67751490     0.08300
H927        H  0.25580668  0.60730348  0.68582055     0.08300
H928        H  0.26630379  0.58647642  0.71395904     0.05100
C929        C  0.40540010  0.70909736  0.33760895    -0.20700
C930        C  0.40189631  0.72343953  0.30503561    -0.07300
C931        C  0.40060601  0.71342900  0.26567089     0.13600
C932        C  0.40209174  0.68896127  0.26014727    -0.20700
C933        C  0.40493414  0.67431750  0.29295316    -0.07300
C934        C  0.40675396  0.68470595  0.33222925     0.13600
C935        C  0.40890470  0.66974062  0.36885540    -0.24100
H936        H  0.40678863  0.71688215  0.36795241     0.14900
H937        H  0.40085525  0.68110524  0.22989480     0.14900
C938        C  0.39672596  0.72773564  0.22971441    -0.24000
H939        H  0.40832590  0.68005142  0.39723294     0.05100
H940        H  0.42888105  0.66969366  0.36838874     0.08400
H941        H  0.39118530  0.64791698  0.36950106     0.08400
H942        H  0.41478682  0.74923230  0.22680867     0.08300
H943        H  0.37731961  0.72871581  0.23319399     0.08300
H944        H  0.39510397  0.71639005  0.20135312     0.05100
C945        C  0.28950034  0.59788022  0.08213583    -0.20700
C946        C  0.27139614  0.59847218  0.11153025    -0.07300
C947        C  0.27772431  0.59803667  0.15253012     0.13600
C948        C  0.30199481  0.59754054  0.16275609    -0.20700
C949        C  0.32035301  0.59741412  0.13335661    -0.07300
C950        C  0.31374764  0.59735261  0.09233151     0.13600
C951        C  0.33208865  0.59718982  0.05892973    -0.24100
H952        H  0.28467576  0.59775363  0.05052981     0.14900
H953        H  0.30655133  0.59718710  0.19436722     0.14900
C954        C  0.25954084  0.59861822  0.18582044    -0.24000
H955        H  0.32400009  0.59813760  0.02875384     0.05100
H956        H  0.33310722  0.57763393  0.06016877     0.08400
H957        H  0.35332556  0.61562265  0.06175279     0.08400
H958        H  0.26839634  0.59923631  0.21602247     0.08300
H959        H  0.25745443  0.61751826  0.18285553     0.08300
H960        H  0.23868564  0.57950986  0.18455521     0.05100
C961        C  0.40936499  0.58267229  0.93307962    -0.20700
C962        C  0.42878937  0.57551174  0.91859048    -0.07300
C963        C  0.44233554  0.56679807  0.94625484     0.13600
C964        C  0.43571641  0.56505995  0.98722124    -0.20700
C965        C  0.41591518  0.57168566  0.00180885    -0.07300
C966        C  0.40266687  0.58086144  0.97413996     0.13600
C967        C  0.38102594  0.58822061  0.98699867    -0.24100
H968        H  0.39891657  0.58930110  0.91194473     0.14900
H969        H  0.44644722  0.55870925  0.00816783     0.14900
C970        C  0.46451043  0.56020468  0.93338514    -0.24000
H971        H  0.37206975  0.59361495  0.96093651     0.05100
H972        H  0.39052389  0.60670570  0.00716889     0.08400
H973        H  0.36365074  0.57014610  0.00264945     0.08400
H974        H  0.48118321  0.57830840  0.91683396     0.08300
H975        H  0.45536279  0.54128006  0.91409361     0.08300
H976        H  0.47433007  0.55597047  0.95951171     0.05100
C977        C  0.43160309  0.55597606  0.44048525    -0.20700
C978        C  0.42321068  0.57204277  0.41799565    -0.07300
C979        C  0.41125945  0.58601835  0.43864383     0.13600
C980        C  0.40803947  0.58331888  0.48059276    -0.20700
C981        C  0.41642323  0.56722451  0.50314144    -0.07300
C982        C  0.42850621  0.55336881  0.48243021     0.13600
C983        C  0.43841835  0.53576832  0.50361428    -0.24100
H984        H  0.44091923  0.54536016  0.42512910     0.14900
H985        H  0.39881122  0.59403878  0.49587900     0.14900
C986        C  0.40141705  0.60362281  0.41724537    -0.24000
H987        H  0.44750305  0.52697313  0.48237504     0.05100
H988        H  0.42063075  0.51785958  0.51887400     0.08400
H989        H  0.45488595  0.54867509  0.52574151     0.08400
H990        H  0.38545799  0.59083146  0.39443031     0.08300
H991        H  0.41931058  0.62182979  0.40267650     0.08300
H992        H  0.39182359  0.61204274  0.43824158     0.05100
C993        C  0.60553641  0.31429111  0.01606591    -0.20700
C994        C  0.59120642  0.32237214  0.04333826    -0.07300
C995        C  0.57708536  0.30444013  0.07624362     0.13600
C996        C  0.57899817  0.28029416  0.08188216    -0.20700
C997        C  0.59432562  0.27309874  0.05574730    -0.07300
C998        C  0.60718686  0.28989333  0.02183304     0.13600
C999        C  0.62354846  0.28280655  0.99273259    -0.24100
H1000       H  0.61595743  0.32731809  0.99021877     0.14900
H1001       H  0.56882498  0.26703726  0.10768950     0.14900
C1002       C  0.56023478  0.31037403  0.10617504    -0.24000
H1003       H  0.63283767  0.29855212  0.96826933     0.05100
H1004       H  0.60966224  0.26214558  0.97873256     0.08400
H1005       H  0.64070864  0.28206165  0.00881897     0.08400
H1006       H  0.54287348  0.31103552  0.09058103     0.08300
H1007       H  0.57376960  0.33053087  0.12167499     0.08300
H1008       H  0.55084401  0.29393935  0.12972388     0.05100
C1009       C  0.68779264  0.38903721  0.90757127    -0.20700
C1010       C  0.67751151  0.40368031  0.88516029    -0.07300
C1011       C  0.69267555  0.41934813  0.85114956     0.13600
C1012       C  0.71735133  0.41976068  0.84067274    -0.20700
C1013       C  0.72752048  0.40529868  0.86331908    -0.07300
C1014       C  0.71260803  0.38973745  0.89717086     0.13600
C1015       C  0.72220348  0.37307945  0.92148963    -0.24100
H1016       H  0.67632779  0.37684078  0.93354841     0.14900
H1017       H  0.72892509  0.43154427  0.81445894     0.14900
C1018       C  0.68361883  0.43618893  0.82612916    -0.24000
H1019       H  0.70743178  0.36128212  0.94616340     0.05100
H1020       H  0.74276241  0.38732518  0.93526592     0.08400
H1021       H  0.72394262  0.35778834  0.90177913     0.08400
H1022       H  0.68207823  0.45181595  0.84532365     0.08300
H1023       H  0.66319676  0.42210356  0.81185914     0.08300
H1024       H  0.69865089  0.44776095  0.80161424     0.05100
C1025       C  0.54049452  0.53603167  0.86369841    -0.20700
C1026       C  0.54129437  0.51225678  0.85097849    -0.07300
C1027       C  0.52846607  0.49928396  0.81417547     0.13600
C1028       C  0.51522158  0.51039184  0.79104739    -0.20700
C1029       C  0.51338830  0.53349629  0.80426418    -0.07300
C1030       C  0.52669040  0.54688339  0.84076297     0.13600
C1031       C  0.52670987  0.57269830  0.85552392    -0.24100
H1032       H  0.55026394  0.54580153  0.89195403     0.14900
H1033       H  0.50469621  0.49983764  0.76355357     0.14900
C1034       C  0.52673235  0.47237762  0.80048254    -0.24000
H1035       H  0.53974666  0.58143247  0.88287698     0.05100
H1036       H  0.50529630  0.56766380  0.86344633     0.08400
H1037       H  0.53517584  0.58906320  0.83181637     0.08400
H1038       H  0.51648318  0.45607036  0.82402450     0.08300
H1039       H  0.54782013  0.47577360  0.79452001     0.08300
H1040       H  0.51449704  0.46430024  0.77231711     0.05100
C1041       C  0.46481857  0.47022639  0.11594783    -0.20700
C1042       C  0.45606826  0.48690182  0.09616135    -0.07300
C1043       C  0.46068159  0.49123176  0.05408043     0.13600
C1044       C  0.47574208  0.48067045  0.03398865    -0.20700
C1045       C  0.48665520  0.46601498  0.05446173    -0.07300
C1046       C  0.47977129  0.45954439  0.09577382     0.13600
C1047       C  0.48839562  0.44190816  0.11942078    -0.24100
H1048       H  0.46081092  0.46637184  0.14790018     0.14900
H1049       H  0.48027075  0.48528957  0.00229309     0.14900
C1050       C  0.45158122  0.50851999  0.03024174    -0.24000
H1051       H  0.47946848  0.43741020  0.15025478     0.05100
H1052       H  0.51130547  0.45331073  0.12256285     0.08400
H1053       H  0.48121592  0.42159738  0.10399461     0.08400
H1054       H  0.46147774  0.53001464  0.04275990     0.08300
H1055       H  0.42856651  0.49869503  0.03121010     0.08300
H1056       H  0.45768342  0.51025342  0.99809342     0.05100
C1057       C  0.60156540  0.31284400  0.52219589    -0.20700
C1058       C  0.59080621  0.32337265  0.55167270    -0.07300
C1059       C  0.57935483  0.30759504  0.58728953     0.13600
C1060       C  0.57950130  0.28247273  0.59245248    -0.20700
C1061       C  0.59078454  0.27241120  0.56344029    -0.07300
C1062       C  0.60173288  0.28767276  0.52764642     0.13600
C1063       C  0.61460846  0.27818928  0.49593568    -0.24100
H1064       H  0.61011532  0.32442089  0.49455934     0.14900
H1065       H  0.57102664  0.27064982  0.61996642     0.14900
C1066       C  0.56745842  0.31700387  0.62064794    -0.24000
H1067       H  0.62303177  0.29316224  0.47042647     0.05100
H1068       H  0.59870412  0.25760155  0.48374316     0.08400
H1069       H  0.63201674  0.27636530  0.50916531     0.08400
H1070       H  0.54901305  0.31787151  0.60964597     0.08300
H1071       H  0.58355186  0.33786145  0.63180803     0.08300
H1072       H  0.56050064  0.30241172  0.64665632     0.05100
C1073       C  0.69604763  0.40499768  0.41691156    -0.20700
C1074       C  0.67503838  0.40035795  0.38894867    -0.07300
C1075       C  0.67863580  0.39557787  0.34828728     0.13600
C1076       C  0.70283644  0.39536221  0.33697733    -0.20700
C1077       C  0.72401255  0.40007643  0.36484533    -0.07300
C1078       C  0.72044247  0.40505608  0.40555064     0.13600
C1079       C  0.74196002  0.41055110  0.43739203    -0.24100
H1080       H  0.69353190  0.40892490  0.44813655     0.14900
H1081       H  0.70511889  0.39156780  0.30562192     0.14900
C1082       C  0.65705000  0.39015655  0.31656322    -0.24000
H1083       H  0.73536846  0.41379068  0.46751194     0.05100
H1084       H  0.76182748  0.42976229  0.42984516     0.08400
H1085       H  0.74532793  0.39240077  0.43973608     0.08400
H1086       H  0.65478352  0.40889282  0.31292124     0.08300
H1087       H  0.63676438  0.37184818  0.32523771     0.08300
H1088       H  0.66291814  0.38560280  0.28674011     0.05100
C1089       C  0.58415651  0.45382811  0.69061143    -0.20700
C1090       C  0.57259623  0.42731527  0.67251164    -0.07300
C1091       C  0.56729493  0.40396802  0.69669877     0.13600
C1092       C  0.57379265  0.40786989  0.73785630    -0.20700
C1093       C  0.58544389  0.43434906  0.75581722    -0.07300
C1094       C  0.59092418  0.45772645  0.73175542     0.13600
C1095       C  0.60525611  0.48702197  0.74857496    -0.24100
H1096       H  0.58864716  0.47181044  0.67218952     0.14900
H1097       H  0.56936762  0.38994297  0.75638024     0.14900
C1098       C  0.55406897  0.37467631  0.67996038    -0.24000
H1099       H  0.60939422  0.50284494  0.72490608     0.05100
H1100       H  0.62552373  0.49191796  0.76201559     0.08400
H1101       H  0.59217783  0.48918964  0.77181099     0.08400
H1102       H  0.56831259  0.37302953  0.65815043     0.08300
H1103       H  0.53406234  0.36920286  0.66505588     0.08300
H1104       H  0.54958323  0.35892838  0.70389380     0.05100
C1105       C  0.56072022  0.43054866  0.24022291    -0.20700
C1106       C  0.57997291  0.42354851  0.25584494    -0.07300
C1107       C  0.59405606  0.41495866  0.22877839     0.13600
C1108       C  0.58876059  0.41418333  0.18725321    -0.20700
C1109       C  0.57003513  0.42197571  0.17170677    -0.07300
C1110       C  0.55565431  0.43001749  0.19888035     0.13600
C1111       C  0.53447886  0.43760004  0.18499371    -0.24100
H1112       H  0.54940072  0.43655968  0.26061156     0.14900
H1113       H  0.59983952  0.40798295  0.16663369     0.14900
C1114       C  0.61523063  0.40730049  0.24283576    -0.24000
H1115       H  0.52354750  0.44090493  0.21054271     0.05100
H1116       H  0.51850194  0.42042584  0.16626030     0.08400
H1117       H  0.54507146  0.45742141  0.16770446     0.08400
H1118       H  0.60510892  0.38851264  0.26241507     0.08300
H1119       H  0.63214844  0.42510660  0.25952364     0.08300
H1120       H  0.62490688  0.40229876  0.21728959     0.05100
C1121       C  0.51777819  0.51454751  0.28425905    -0.20700
C1122       C  0.50612108  0.52867799  0.30426456    -0.07300
C1123       C  0.51062830  0.53314264  0.34649205     0.13600
C1124       C  0.52479592  0.52176917  0.36728734    -0.20700
C1125       C  0.53483082  0.50611634  0.34755172    -0.07300
C1126       C  0.53183149  0.50312083  0.30509029     0.13600
C1127       C  0.54172742  0.48644936  0.28137694    -0.24100
H1128       H  0.51473524  0.51115584  0.25211291     0.14900
H1129       H  0.52733698  0.52443220  0.39960758     0.14900
C1130       C  0.50056382  0.54959296  0.37047276    -0.24000
H1131       H  0.53665773  0.48552869  0.24889724     0.05100
H1132       H  0.53147810  0.46464359  0.29282007     0.08400
H1133       H  0.56468582  0.49624975  0.28379360     0.08400
H1134       H  0.47747875  0.53821566  0.37167603     0.08300
H1135       H  0.50845535  0.57058159  0.35680327     0.08300
H1136       H  0.50804652  0.55276453  0.40207483     0.05100
C1137       C  0.45389079  0.48252571  0.56172970    -0.20700
C1138       C  0.45603789  0.48261285  0.60391449    -0.07300
C1139       C  0.46919249  0.46894299  0.62168095     0.13600
C1140       C  0.48231686  0.45845358  0.59682645    -0.20700
C1141       C  0.48324165  0.46161631  0.55463533    -0.07300
C1142       C  0.46743846  0.47253888  0.53682808     0.13600
C1143       C  0.46548645  0.47505020  0.49189470    -0.24100
H1144       H  0.44310966  0.49214312  0.54783645     0.14900
H1145       H  0.49317800  0.44893460  0.61087911     0.14900
C1146       C  0.46981942  0.46540003  0.66662431    -0.24000
H1147       H  0.45149122  0.48326222  0.48378318     0.05100
H1148       H  0.45690017  0.45414903  0.47768158     0.08400
H1149       H  0.48633939  0.48971910  0.47926840     0.14400
H1150       H  0.44834207  0.45552156  0.67891194     0.08300
H1151       H  0.48312539  0.48590650  0.68131517     0.08300
H1152       H  0.47857315  0.45180690  0.67462389     0.05100
loop_ 
_geom_bond_atom_site_label_1 
_geom_bond_atom_site_label_2 
_geom_bond_distance 
_geom_bond_site_symmetry_2 
_ccdc_geom_bond_type 
O1           Mg3   2.123       .  S
O1           Mg9   2.133       .  S
O1           C36   1.239       .  S
C2           O15   1.236       .  S
C2           O39   1.268       .  A
C2           H41   1.081       .  S
Mg3          O32   2.154       .  S
Mg3          O47   2.328       .  S
Mg3          O43   2.262       .  S
Mg3          O14   2.315       .  S
O4          Mg46   2.146       .  S
O4          Mg29   2.115       .  S
O4           C25   1.234       .  S
O5           C36   1.272       .  A
O5          Mg29   2.296       .  S
C6            O8   1.270       .  A
C6           O20   1.280       .  A
C6         C1125   1.495       .  S
O7           C35   1.274       .  A
O7           Mg9   2.310       .  S
O8          Mg40   2.256       .  S
Mg9          O15   2.097       .  S
Mg9          O23   2.207       .  S
Mg9          O11   2.271       .  S
C10          O48   1.276       .  A
C10          O16   1.275       .  A
C10        C1141   1.494       .  S
O11          C18   1.270       .  A
H12          C25   1.081       .  S
C13          O27   1.236       .  S
C13          O28   1.270       .  A
C13          H38   1.081       .  S
O14          C37   1.273       .  A
O15         Mg29   2.138       .  S
O16         Mg46   2.282       .  S
C17          O30   1.277       .  A
C17          O22   1.275       .  A
C17        C1090   1.489       .  S
C18          O45   1.273       .  A
C18        C1058   1.494       .  S
Mg19         O26   2.162       .  S
Mg19         O27   2.164       .  S
Mg19         O20   2.336       .  S
Mg19         O21   2.283       .  S
Mg19         O48   2.284       .  S
O21          C25   1.267       .  A
O22         Mg29   2.295       .  S
O23          C42   1.265       .  A
O24          C44   1.276       .  A
O24         Mg40   2.302       .  S
O26         Mg40   2.153       .  S
O26          C37   1.237       .  S
O27         Mg46   2.157       .  S
O28         Mg40   2.300       .  S
Mg29         O45   2.277       .  S
O30         Mg46   2.291       .  S
H31          C36   1.081       .  S
O32         Mg40   2.144       .  S
O32          C35   1.239       .  S
H33          C35   1.081       .  S
H34          C37   1.080       .  S
O39         Mg46   2.278       .  S
C42          O47   1.276       .  A
C42        C1074   1.485       .  S
O43          C44   1.270       .  A
C44        C1106   1.492       .  S
O49         Mg51   2.124       .  S
O49         Mg57   2.134       .  S
O49          C84   1.238       .  S
C50          O63   1.236       .  S
C50          O87   1.268       .  A
C50          H89   1.081       .  S
Mg51         O80   2.159       .  S
Mg51         O95   2.325       .  S
Mg51         O91   2.266       .  S
Mg51         O62   2.311       .  S
O52         Mg94   2.146       .  S
O52         Mg77   2.130       .  S
O52          C73   1.234       .  S
O53          C84   1.272       .  A
O53         Mg77   2.297   1_556  S
C54          O56   1.267       .  A
C54          O68   1.277       .  A
C54        C1026   1.477       .  S
O55          C83   1.273       .  A
O55         Mg57   2.306       .  S
O56         Mg88   2.230       .  S
Mg57         O63   2.102   1_556  S
Mg57         O71   2.206       .  S
Mg57         O59   2.276   1_556  S
C58          O96   1.277   1_554  A
C58          O64   1.275       .  A
C58        C1045   1.498       .  S
O59          C66   1.271       .  A
H60          C73   1.081       .  S
C61          O75   1.237       .  S
C61          O76   1.271       .  A
C61          H86   1.081   1_556  S
O62          C85   1.272       .  A
O63         Mg77   2.137       .  S
O64         Mg94   2.303       .  S
C65          O78   1.276       .  A
C65          O70   1.278       .  A
C65        C1109   1.490       .  S
C66          O93   1.274       .  A
C66         C994   1.498       .  S
Mg67         O74   2.161       .  S
Mg67         O75   2.158       .  S
Mg67         O68   2.330       .  S
Mg67         O69   2.287       .  S
Mg67         O96   2.282       .  S
O69          C73   1.268   1_556  A
O70         Mg77   2.312       .  S
O71          C90   1.265       .  A
O72          C92   1.272       .  A
O72         Mg88   2.300       .  S
O74         Mg88   2.150       .  S
O74          C85   1.236       .  S
O75         Mg94   2.154   1_556  S
O76         Mg88   2.304       .  S
Mg77         O93   2.287       .  S
O78         Mg94   2.279       .  S
H79          C84   1.081       .  S
O80         Mg88   2.139       .  S
O80          C83   1.239       .  S
H81          C83   1.081       .  S
H82          C85   1.080       .  S
O87         Mg94   2.283       .  S
C90          O95   1.276       .  A
C90        C1010   1.485       .  S
O91          C92   1.272       .  A
C92        C1093   1.484       .  S
O97         Mg99   2.116       .  S
O97        Mg105   2.127       .  S
O97         C132   1.238       .  S
C98         O111   1.235       .  S
C98         O135   1.267       .  A
C98         H137   1.082       .  S
Mg99        O128   2.147       .  S
Mg99        O143   2.342       .  S
Mg99        O139   2.253       .  S
Mg99        O110   2.323       .  S
O100       Mg142   2.149       .  S
O100       Mg125   2.119       .  S
O100        C121   1.233       .  S
O101        C132   1.271       .  A
O101       Mg125   2.295       .  S
C102        O104   1.268       .  A
C102        O116   1.279       .  A
C102       C1042   1.489       .  S
O103        C131   1.273       .  A
O103       Mg105   2.307       .  S
O104       Mg136   2.239       .  S
Mg105       O111   2.094       .  S
Mg105       O119   2.195       .  S
Mg105       O107   2.252       .  S
C106        O144   1.280       .  A
C106        O112   1.273       .  A
C106       C1122   1.501       .  S
O107        C114   1.267       .  A
H108        C121   1.081       .  S
C109        O123   1.236       .  S
C109        O124   1.271       .  A
C109        H134   1.081       .  S
O110        C133   1.274       .  A
O111       Mg125   2.139       .  S
O112       Mg142   2.288       .  S
C113        O126   1.276       .  A
C113        O118   1.275       .  A
C113        C978   1.494       .  S
C114        O141   1.273       .  A
C114        C933   1.481       .  S
Mg115       O122   2.176       .  S
Mg115       O123   2.161       .  S
Mg115       O116   2.328       .  S
Mg115       O117   2.284       .  S
Mg115       O144   2.308       .  S
O117        C121   1.266       .  A
O118       Mg125   2.295       .  S
O119        C138   1.263       .  A
O120        C140   1.275       .  A
O120       Mg136   2.305       .  S
O122       Mg136   2.156       .  S
O122        C133   1.238       .  S
O123       Mg142   2.151       .  S
O124       Mg136   2.301       .  S
Mg125       O141   2.278       .  S
O126       Mg142   2.273       .  S
H127        C132   1.081       .  S
O128       Mg136   2.137       .  S
O128        C131   1.238       .  S
H129        C131   1.081       .  S
H130        C133   1.080       .  S
O135       Mg142   2.277       .  S
C138        O143   1.278       .  A
C138        C949   1.489       .  S
O139        C140   1.269       .  A
C140        C965   1.490       .  S
O145       Mg147   2.122       .  S
O145       Mg153   2.134       .  S
O145        C180   1.239       .  S
C146        O159   1.236       .  S
C146        O183   1.268       .  A
C146        H185   1.081       .  S
Mg147       O176   2.149       .  S
Mg147       O191   2.341       .  S
Mg147       O187   2.259       .  S
Mg147       O158   2.316       .  S
O148       Mg190   2.142       .  S
O148       Mg173   2.116       .  S
O148        C169   1.234       .  S
O149        C180   1.272       .  A
O149       Mg173   2.298       .  S
C150        O152   1.270       .  A
C150        O164   1.276       .  A
C150       C1138   1.489       .  S
O151        C179   1.271       .  A
O151       Mg153   2.303       .  S
O152       Mg184   2.241       .  S
Mg153       O159   2.101       .  S
Mg153       O167   2.206       .  S
Mg153       O155   2.261       .  S
C154        O192   1.277       .  A
C154        O160   1.273       .  A
C154       C1029   1.483       .  S
O155        C162   1.269       .  A
H156        C169   1.081       .  S
C157        O171   1.236       .  S
C157        O172   1.270       .  A
C157        H182   1.081       .  S
O158        C181   1.273       .  A
O159       Mg173   2.138       .  S
O160       Mg190   2.288       .  S
C161        O174   1.272       .  A
C161        O166   1.276       .  A
C161        C962   1.485       .  S
C162        O189   1.271       .  A
C162        C901   1.483       .  S
Mg163       O170   2.163       .  S
Mg163       O171   2.152       .  S
Mg163       O164   2.314       .  S
Mg163       O165   2.285       .  S
Mg163       O192   2.287       .  S
O165        C169   1.267       .  A
O166       Mg173   2.302       .  S
O167        C186   1.265       .  A
O168        C188   1.273       .  A
O168       Mg184   2.301       .  S
O170       Mg184   2.156       .  S
O170        C181   1.237       .  S
O171       Mg190   2.140       .  S
O172       Mg184   2.297       .  S
Mg173       O189   2.262       .  S
O174       Mg190   2.259       .  S
H175        C180   1.081       .  S
O176       Mg184   2.135       .  S
O176        C179   1.237       .  S
H177        C179   1.081       .  S
H178        C181   1.080       .  S
O183       Mg190   2.281       .  S
C186        O191   1.278       .  A
C186        C917   1.486       .  S
O187        C188   1.273       .  A
C188        C981   1.497       .  S
O193       Mg195   2.123       .  S
O193       Mg201   2.124       .  S
O193        C228   1.239       .  S
C194        O207   1.236       .  S
C194        O231   1.267       .  A
C194        H233   1.081       .  S
Mg195       O224   2.148       .  S
Mg195       O239   2.344       .  S
Mg195       O235   2.253       .  S
Mg195       O206   2.317       .  S
O196       Mg238   2.143       .  S
O196       Mg221   2.129       .  S
O196        C217   1.235       .  S
O197        C228   1.272       .  A
O197       Mg221   2.302   1_554  S
C198        O200   1.268       .  A
C198        O212   1.282       .  A
C198        C837   1.498       .  S
O199        C227   1.274       .  A
O199       Mg201   2.311       .  S
O200       Mg232   2.236       .  S
Mg201       O207   2.087   1_554  S
Mg201       O215   2.190       .  S
Mg201       O203   2.249   1_554  S
C202        O240   1.281       .  A
C202        O208   1.269       .  A
C202        C882   1.499       .  S
O203        C210   1.266       .  A
H204        C217   1.081       .  S
C205        O219   1.235       .  S
C205        O220   1.268       .  A
C205        H230   1.081   1_554  S
O206        C229   1.274       .  A
O207       Mg221   2.141       .  S
O208       Mg238   2.263       .  S
C209        O222   1.272       .  A
C209        O214   1.279       .  A
C209        C850   1.488       .  S
C210        O237   1.276       .  A
C210        C818   1.481       .  S
Mg211       O218   2.172       .  S
Mg211       O219   2.154       .  S
Mg211       O212   2.339       .  S
Mg211       O213   2.292       .  S
Mg211       O240   2.322   1_554  S
O213        C217   1.269   1_554  A
O214       Mg221   2.318       .  S
O215        C234   1.262       .  A
O216        C236   1.274       .  A
O216       Mg232   2.308       .  S
O218       Mg232   2.167       .  S
O218        C229   1.238       .  S
O219       Mg238   2.141   1_554  S
O220       Mg232   2.293       .  S
Mg221       O237   2.309       .  S
O222       Mg238   2.254       .  S
H223        C228   1.081       .  S
O224       Mg232   2.140       .  S
O224        C227   1.239       .  S
H225        C227   1.081       .  S
H226        C229   1.081       .  S
O231       Mg238   2.274       .  S
C234        O239   1.277       .  A
C234        C946   1.488       .  S
O235        C236   1.270       .  A
C236        C866   1.477       .  S
O241       Mg243   2.117       .  S
O241       Mg249   2.132       .  S
O241        C276   1.239       .  S
C242        O255   1.235       .  S
C242        O279   1.266       .  A
C242        H281   1.081       .  S
Mg243       O272   2.153       .  S
Mg243       O287   2.343       .  S
Mg243       O283   2.252       .  S
Mg243       O254   2.319       .  S
O244       Mg286   2.149       .  S
O244       Mg269   2.124       .  S
O244        C265   1.234       .  S
O245        C276   1.271       .  A
O245       Mg269   2.294       .  S
C246        O248   1.269       .  A
C246        O260   1.279       .  A
C246        C789   1.495       .  S
O247        C275   1.273       .  A
O247       Mg249   2.308       .  S
O248       Mg280   2.247       .  S
Mg249       O255   2.093       .  S
Mg249       O263   2.203       .  S
Mg249       O251   2.251       .  S
C250        O288   1.280       .  A
C250        O256   1.272       .  A
C250        C802   1.500       .  S
O251        C258   1.268       .  A
H252        C265   1.081       .  S
C253        O267   1.236       .  S
C253        O268   1.270       .  A
C253        H278   1.081       .  S
O254        C277   1.273       .  A
O255       Mg269   2.147       .  S
O256       Mg286   2.287       .  S
C257        O270   1.275       .  A
C257        O262   1.278       .  A
C257        C869   1.482       .  S
C258        O285   1.276       .  A
C258        C770   1.481       .  S
Mg259       O266   2.173       .  S
Mg259       O267   2.160       .  S
Mg259       O260   2.323       .  S
Mg259       O261   2.284       .  S
Mg259       O288   2.304       .  S
O261        C265   1.266       .  A
O262       Mg269   2.312       .  S
O263        C282   1.264       .  A
O264        C284   1.275       .  A
O264       Mg280   2.309       .  S
O266       Mg280   2.160       .  S
O266        C277   1.237       .  S
O267       Mg286   2.152       .  S
O268       Mg280   2.300       .  S
Mg269       O285   2.302       .  S
O270       Mg286   2.268       .  S
H271        C276   1.081       .  S
O272       Mg280   2.145       .  S
O272        C275   1.239       .  S
H273        C275   1.081       .  S
H274        C277   1.080       .  S
O279       Mg286   2.273       .  S
C282        O287   1.278       .  A
C282        C914   1.495       .  S
O283        C284   1.270       .  A
C284        C853   1.481       .  S
O289       Mg291   2.114       .  S
O289       Mg297   2.137       .  S
O289        C324   1.240       .  S
C290        O327   1.264       .  A
C290        H329   1.081       .  S
C290        O303   1.262       .  A
Mg291       O320   2.155       .  S
Mg291       O335   2.345       .  S
Mg291       O331   2.251       .  S
Mg291       O302   2.320       .  S
O292       Mg334   2.159       .  S
O292       Mg317   2.129       .  S
O292        C313   1.235       .  S
O293        C324   1.273       .  A
O293       Mg317   2.295       .  S
C294        O296   1.269       .  A
C294        O308   1.282       .  A
C294        C805   1.498       .  S
O295        C323   1.272       .  A
O295       Mg297   2.300       .  S
O296       Mg328   2.246       .  S
Mg297       O311   2.183       .  S
Mg297       O299   2.248       .  S
Mg297       O303   2.144       .  S
C298        O336   1.281       .  A
C298        O304   1.269       .  A
C298        C834   1.498       .  S
O299        C306   1.267       .  A
H300        C313   1.081       .  S
C301        O315   1.235       .  S
C301        O316   1.270       .  A
C301        H326   1.081       .  S
O302        C325   1.274       .  A
O303       Mg317   2.208       .  S
O304       Mg334   2.262       .  S
C305        O318   1.276       .  A
C305        O310   1.278       .  A
C305        C754   1.480       .  S
C306        O333   1.278       .  A
C306        C722   1.481       .  S
Mg307       O314   2.175       .  S
Mg307       O315   2.161       .  S
Mg307       O308   2.352       .  S
Mg307       O309   2.293       .  S
Mg307       O336   2.311       .  S
O309        C313   1.269       .  A
O310       Mg317   2.309       .  S
O311        C330   1.263       .  A
O312        C332   1.275       .  A
O312       Mg328   2.306       .  S
O314       Mg328   2.159       .  S
O314        C325   1.238       .  S
O315       Mg334   2.164       .  S
O316       Mg328   2.302       .  S
Mg317       O333   2.310       .  S
O318       Mg334   2.271       .  S
H319        C324   1.081       .  S
O320       Mg328   2.139       .  S
O320        C323   1.238       .  S
H321        C323   1.081       .  S
H322        C325   1.081       .  S
O327       Mg334   2.282       .  S
C330        O335   1.278       .  A
C330       C1077   1.492       .  S
O331        C332   1.270       .  A
C332        C738   1.476       .  S
O337       Mg339   2.112       .  S
O337       Mg345   2.138       .  S
O337        C372   1.238       .  S
C338        O351   1.234       .  S
C338        O375   1.265       .  A
C338        H377   1.081       .  S
Mg339       O368   2.150       .  S
Mg339       O383   2.327       .  S
Mg339       O379   2.252       .  S
Mg339       O350   2.319       .  S
O340       Mg382   2.152       .  S
O340       Mg365   2.137       .  S
O340        C361   1.235       .  S
O341        C372   1.270       .  A
O341       Mg365   2.290       .  S
C342        O344   1.267       .  A
C342        O356   1.280       .  A
C342        C885   1.499       .  S
O343        C371   1.272       .  A
O343       Mg345   2.296       .  S
O344       Mg376   2.238       .  S
Mg345       O351   2.083       .  S
Mg345       O359   2.196       .  S
Mg345       O347   2.242       .  S
C346        O384   1.278       .  A
C346        O352   1.271       .  A
C346        C786   1.500       .  S
O347        C354   1.266       .  A
H348        C361   1.081       .  S
C349        O363   1.236       .  S
C349        O364   1.272       .  A
C349        H374   1.081       .  S
O350        C373   1.273       .  A
O351       Mg365   2.142       .  S
O352       Mg382   2.285       .  S
C353        O366   1.276       .  A
C353        O358   1.277       .  A
C353        C741   1.480       .  S
C354        O381   1.277       .  A
C354        C706   1.484       .  S
Mg355       O362   2.164       .  S
Mg355       O363   2.149       .  S
Mg355       O356   2.334       .  S
Mg355       O357   2.297       .  S
Mg355       O384   2.296       .  S
O357        C361   1.269       .  A
O358       Mg365   2.305       .  S
O359        C378   1.263       .  A
O360        C380   1.274       .  A
O360       Mg376   2.313       .  S
O362       Mg376   2.153       .  S
O362        C373   1.237       .  S
O363       Mg382   2.160       .  S
O364       Mg376   2.310       .  S
Mg365       O381   2.305       .  S
O366       Mg382   2.266       .  S
H367        C372   1.081       .  S
O368       Mg376   2.132       .  S
O368        C371   1.239       .  S
H369        C371   1.081       .  S
H370        C373   1.080       .  S
O375       Mg382   2.270       .  S
C378        O383   1.276       .  A
C378       C1013   1.470       .  S
O379        C380   1.271       .  A
C380        C757   1.486       .  S
O385       Mg387   2.122       .  S
O385       Mg393   2.129       .  S
O385        C420   1.240       .  S
C386        O399   1.235       .  S
C386        O423   1.267       .  A
C386        H425   1.081       .  S
Mg387       O416   2.142       .  S
Mg387       O431   2.362       .  S
Mg387       O427   2.267   1_554  S
Mg387       O398   2.329       .  S
O388       Mg430   2.142       .  S
O388       Mg413   2.131       .  S
O388        C409   1.235       .  S
O389        C420   1.272       .  A
O389       Mg413   2.295       .  S
C390        O392   1.270       .  A
C390        O404   1.276       .  A
C390        C690   1.489       .  S
O391        C419   1.273       .  A
O391       Mg393   2.304       .  S
O392       Mg424   2.241       .  S
Mg393       O399   2.092       .  S
Mg393       O407   2.203       .  S
Mg393       O395   2.256       .  S
C394        O432   1.276       .  A
C394        O400   1.274       .  A
C394        C677   1.490       .  S
O395        C402   1.268       .  A
H396        C409   1.081       .  S
C397        O411   1.236       .  S
C397        O412   1.271       .  A
C397        H422   1.081       .  S
O398        C421   1.276       .  A
O399       Mg413   2.141       .  S
O400       Mg430   2.291       .  S
C401        O414   1.275       .  A
C401        O406   1.281       .  A
C401        C658   1.500       .  S
C402        O429   1.276       .  A
C402        C725   1.476       .  S
Mg403       O410   2.178       .  S
Mg403       O411   2.152       .  S
Mg403       O404   2.323       .  S
Mg403       O405   2.295       .  S
Mg403       O432   2.301       .  S
O405        C409   1.269       .  A
O406       Mg413   2.324       .  S
O407        C426   1.265       .  A
O408        C428   1.275       .  A
O408       Mg424   2.305   1_556  S
O410       Mg424   2.157       .  S
O410        C421   1.239       .  S
O411       Mg430   2.154       .  S
O412       Mg424   2.304       .  S
Mg413       O429   2.301       .  S
O414       Mg430   2.275       .  S
H415        C420   1.081       .  S
O416       Mg424   2.134       .  S
O416        C419   1.239       .  S
H417        C419   1.081       .  S
H418        C421   1.081       .  S
O423       Mg430   2.275       .  S
C426        O431   1.280       .  A
C426        C997   1.480       .  S
O427        C428   1.271       .  A
C428        C645   1.499       .  S
O433       Mg435   2.116       .  S
O433       Mg441   2.129       .  S
O433        C468   1.240       .  S
C434        O447   1.234       .  S
C434        O471   1.265       .  A
C434        H473   1.081       .  S
Mg435       O464   2.151       .  S
Mg435       O479   2.356       .  S
Mg435       O475   2.255       .  S
Mg435       O446   2.326       .  S
O436       Mg478   2.148       .  S
O436       Mg461   2.125       .  S
O436        C457   1.234       .  S
O437        C468   1.273       .  A
O437       Mg461   2.298       .  S
C438        O440   1.268       .  A
C438        O452   1.279       .  A
C438        C626   1.493       .  S
O439        C467   1.273       .  A
O439       Mg441   2.303       .  S
O440       Mg472   2.242       .  S
Mg441       O447   2.089       .  S
Mg441       O455   2.193       .  S
Mg441       O443   2.245       .  S
C442        O480   1.277       .  A
C442        O448   1.276       .  A
C442        C610   1.498       .  S
O443        C450   1.266       .  A
H444        C457   1.081       .  S
C445        O459   1.236       .  S
C445        O460   1.272       .  A
C445        H470   1.081       .  S
O446        C469   1.274       .  A
O447       Mg461   2.136       .  S
O448       Mg478   2.296       .  S
C449        O462   1.275       .  A
C449        O454   1.279       .  A
C449        C642   1.497       .  S
C450        O477   1.275       .  A
C450        C709   1.476       .  S
Mg451       O458   2.178       .  S
Mg451       O459   2.157       .  S
Mg451       O452   2.327       .  S
Mg451       O453   2.287       .  S
Mg451       O480   2.296       .  S
O453        C457   1.267       .  A
O454       Mg461   2.308       .  S
O455        C474   1.263       .  A
O456        C476   1.276       .  A
O456       Mg472   2.312       .  S
O458       Mg472   2.158       .  S
O458        C469   1.237       .  S
O459       Mg478   2.161       .  S
O460       Mg472   2.306       .  S
Mg461       O477   2.297       .  S
O462       Mg478   2.278       .  S
H463        C468   1.081       .  S
O464       Mg472   2.139       .  S
O464        C467   1.239       .  S
H465        C467   1.081       .  S
H466        C469   1.081       .  S
O471       Mg478   2.272       .  S
C474        O479   1.279       .  A
C474       C1061   1.482       .  S
O475        C476   1.270       .  A
C476        C661   1.488       .  S
O481       Mg483   2.139       .  S
O481       Mg489   2.117       .  S
O481        C516   1.240       .  S
C482        O519   1.265       .  A
C482        H521   1.081       .  S
C482        O495   1.262       .  A
Mg483       O512   2.143       .  S
Mg483       O527   2.368       .  S
Mg483       O523   2.273       .  S
Mg483       O494   2.325       .  S
O484       Mg526   2.164       .  S
O484       Mg509   2.122       .  S
O484        C505   1.234       .  S
O485        C516   1.274       .  A
O485       Mg509   2.305       .  S
C486        O488   1.269       .  A
C486        O500   1.279       .  A
C486        C674   1.495       .  S
O487        C515   1.275       .  A
O487       Mg489   2.319       .  S
O488       Mg520   2.262       .  S
Mg489       O503   2.181       .  S
Mg489       O491   2.256       .  S
Mg489       O495   2.148       .  S
C490        O528   1.279       .  A
C490        O496   1.271       .  A
C490        C629   1.499       .  S
O491        C498   1.268       .  A
H492        C505   1.081       .  S
C493        O507   1.236       .  S
C493        O508   1.270       .  A
C493        H518   1.081       .  S
O494        C517   1.276       .  A
O495       Mg509   2.213       .  S
O496       Mg526   2.276       .  S
C497        O510   1.276       .  A
C497        O502   1.276       .  A
C497        C578   1.495       .  S
C498        O525   1.276       .  A
C498        C773   1.477       .  S
Mg499       O506   2.168       .  S
Mg499       O507   2.157       .  S
Mg499       O500   2.321       .  S
Mg499       O501   2.283       .  S
Mg499       O528   2.300       .  S
O501        C505   1.267       .  A
O502       Mg509   2.302       .  S
O503        C522   1.260       .  A
O504        C524   1.272       .  A
O504       Mg520   2.293       .  S
O506       Mg520   2.153       .  S
O506        C517   1.239       .  S
O507       Mg526   2.155       .  S
O508       Mg520   2.303       .  S
Mg509       O525   2.306       .  S
O510       Mg526   2.266       .  S
H511        C516   1.081       .  S
O512       Mg520   2.145       .  S
O512        C515   1.239       .  S
H513        C515   1.081       .  S
H514        C517   1.081       .  S
O519       Mg526   2.283       .  S
C522        O527   1.279       .  A
C522        C930   1.482       .  S
O523        C524   1.273       .  A
C524        C594   1.492       .  S
O529       Mg531   2.121       .  S
O529       Mg537   2.125       .  S
O529        C564   1.239       .  S
C530        O543   1.235       .  S
C530        O567   1.266       .  A
C530        H569   1.081       .  S
Mg531       O560   2.144       .  S
Mg531       O575   2.341       .  S
Mg531       O571   2.252       .  S
Mg531       O542   2.323       .  S
O532       Mg574   2.154       .  S
O532       Mg557   2.138       .  S
O532        C553   1.235       .  S
O533        C564   1.272       .  A
O533       Mg557   2.296       .  S
C534        O536   1.269       .  A
C534        O548   1.280       .  A
C534        C613   1.492       .  S
O535        C563   1.273       .  A
O535       Mg537   2.306       .  S
O536       Mg568   2.240       .  S
Mg537       O543   2.083       .  S
Mg537       O551   2.187       .  S
Mg537       O539   2.244       .  S
C538        O576   1.275       .  A
C538        O544   1.278       .  A
C538        C693   1.499       .  S
O539        C546   1.265       .  A
H540        C553   1.081       .  S
C541        O555   1.236       .  S
C541        O556   1.272       .  A
C541        H566   1.081       .  S
O542        C565   1.275       .  A
O543       Mg557   2.138       .  S
O544       Mg574   2.305       .  S
C545        O558   1.279       .  A
C545        O550   1.277       .  A
C545        C597   1.487       .  S
C546        O573   1.277       .  A
C546        C821   1.490       .  S
Mg547       O554   2.166       .  S
Mg547       O555   2.158       .  S
Mg547       O548   2.354       .  S
Mg547       O549   2.292       .  S
Mg547       O576   2.279       .  S
O549        C553   1.268       .  A
O550       Mg557   2.301   1_554  S
O551        C570   1.263       .  A
O552        C572   1.273       .  A
O552       Mg568   2.307       .  S
O554       Mg568   2.150       .  S
O554        C565   1.238       .  S
O555       Mg574   2.171       .  S
O556       Mg568   2.308       .  S
Mg557       O573   2.314       .  S
O558       Mg574   2.290   1_554  S
H559        C564   1.081       .  S
O560       Mg568   2.132       .  S
O560        C563   1.239       .  S
H561        C563   1.081       .  S
H562        C565   1.081       .  S
O567       Mg574   2.275       .  S
C570        O575   1.277       .  A
C570        C898   1.479       .  S
O571        C572   1.271       .  A
C572        C581   1.495       .  S
C577        H584   1.084       .  S
C577        C578   1.407       .  A
C577        C582   1.402       .  A
C578        C579   1.421       .  A
C579        C580   1.404       .  A
C579        C586   1.510       .  S
C580        H585   1.083       .  S
C580        C581   1.407       .  A
C581        C582   1.419       .  A
C582        C583   1.507       .  S
C583        H587   1.111       .  S
C583        H588   1.110       .  S
C583        H589   1.109       .  S
C586        H590   1.110       .  S
C586        H591   1.110       .  S
C586        H592   1.111       .  S
C593        H600   1.084       .  S
C593        C594   1.405       .  A
C593        C598   1.405       .  A
C594        C595   1.422       .  A
C595        C596   1.405       .  A
C595        C602   1.510       .  S
C596        H601   1.084       .  S
C596        C597   1.402       .  A
C597        C598   1.418       .  A
C598        C599   1.509       .  S
C599        H603   1.111       .  S
C599        H604   1.111       .  S
C599        H605   1.110       .  S
C602        H606   1.109       .  S
C602        H607   1.111       .  S
C602        H608   1.111       .  S
C609        H616   1.084       .  S
C609        C610   1.413       .  A
C609        C614   1.409   1_545  A
C610        C611   1.419   1_545  A
C611        C612   1.404       .  A
C611        C618   1.510       .  S
C612        H617   1.081       .  S
C612        C613   1.405       .  A
C613        C614   1.412       .  A
C614        C615   1.505   1_565  S
C615        H619   1.111       .  S
C615        H620   1.110   1_545  S
C615        H621   1.105   1_545  S
C618        H622   1.110       .  S
C618        H623   1.110   1_565  S
C618        H624   1.111       .  S
C625        H632   1.084       .  S
C625        C626   1.402       .  A
C625        C630   1.406   1_545  A
C626        C627   1.422       .  A
C627        C628   1.405       .  A
C627        C634   1.510       .  S
C628        H633   1.084       .  S
C628        C629   1.406   1_545  A
C629        C630   1.427       .  A
C630        C631   1.511       .  S
C631        H635   1.111       .  S
C631        H636   1.110       .  S
C631        H637   1.110       .  S
C634        H638   1.110       .  S
C634        H639   1.110       .  S
C634        H640   1.111       .  S
C641        H648   1.083       .  S
C641        C642   1.408       .  A
C641        C646   1.406       .  A
C642        C643   1.420       .  A
C643        C644   1.405       .  A
C643        C650   1.510       .  S
C644        H649   1.083       .  S
C644        C645   1.409       .  A
C645        C646   1.421       .  A
C646        C647   1.509       .  S
C647        H651   1.111       .  S
C647        H652   1.110       .  S
C647        H653   1.110       .  S
C650        H654   1.111       .  S
C650        H655   1.110       .  S
C650        H656   1.111       .  S
C657        H664   1.083       .  S
C657        C658   1.408       .  A
C657        C662   1.406       .  A
C658        C659   1.424       .  A
C659        C660   1.403       .  A
C659        C666   1.506       .  S
C660        H665   1.084       .  S
C660        C661   1.402       .  A
C661        C662   1.417       .  A
C662        C663   1.509       .  S
C663        H667   1.111       .  S
C663        H668   1.111       .  S
C663        H669   1.110       .  S
C666        H670   1.105       .  S
C666        H671   1.110       .  S
C666        H672   1.111       .  S
C673        H680   1.084       .  S
C673        C674   1.403       .  A
C673        C678   1.398   1_565  A
C674        C675   1.423       .  A
C675        C676   1.413       .  A
C675        C682   1.507       .  S
C676        H681   1.084   1_565  S
C676        C677   1.405   1_565  A
C677        C678   1.419       .  A
C678        C679   1.508       .  S
C679        H683   1.111       .  S
C679        H684   1.111       .  S
C679        H685   1.105       .  S
C682        H686   1.109       .  S
C682        H687   1.110       .  S
C682        H688   1.111       .  S
C689        H696   1.084       .  S
C689        C690   1.405   1_556  A
C689        C694   1.403       .  A
C690        C691   1.415       .  A
C691        C692   1.407   1_545  A
C691        C698   1.508   1_545  S
C692        H697   1.084       .  S
C692        C693   1.411   1_554  A
C693        C694   1.421   1_565  A
C694        C695   1.507       .  S
C695        H699   1.110       .  S
C695        H700   1.110       .  S
C695        H701   1.107       .  S
C698        H702   1.110   1_565  S
C698        H703   1.109   1_565  S
C698        H704   1.111       .  S
C705        H712   1.084       .  S
C705        C706   1.400       .  A
C705        C710   1.403       .  A
C706        C707   1.426       .  A
C707        C708   1.403       .  A
C707        C714   1.510       .  S
C708        H713   1.084       .  S
C708        C709   1.396       .  A
C709        C710   1.419       .  A
C710        C711   1.509       .  S
C711        H715   1.111       .  S
C711        H716   1.109       .  S
C711        H717   1.109       .  S
C714        H718   1.110       .  S
C714        H719   1.110       .  S
C714        H720   1.111       .  S
C721        H728   1.084       .  S
C721        C722   1.404       .  A
C721        C726   1.406       .  A
C722        C723   1.418       .  A
C723        C724   1.404       .  A
C723        C730   1.509       .  S
C724        H729   1.084       .  S
C724        C725   1.402       .  A
C725        C726   1.414       .  A
C726        C727   1.507       .  S
C727        H731   1.111       .  S
C727        H732   1.110       .  S
C727        H733   1.110       .  S
C730        H734   1.110       .  S
C730        H735   1.109       .  S
C730        H736   1.111       .  S
C737        H744   1.084       .  S
C737        C738   1.404       .  A
C737        C742   1.406       .  A
C738        C739   1.412       .  A
C739        C740   1.400       .  A
C739        C746   1.507       .  S
C740        H745   1.084       .  S
C740        C741   1.404       .  A
C741        C742   1.416       .  A
C742        C743   1.507       .  S
C743        H747   1.111       .  S
C743        H748   1.109       .  S
C743        H749   1.110       .  S
C746        H750   1.110       .  S
C746        H751   1.105       .  S
C746        H752   1.111       .  S
C753        H760   1.084       .  S
C753        C754   1.403       .  A
C753        C758   1.404       .  A
C754        C755   1.414       .  A
C755        C756   1.404       .  A
C755        C762   1.508       .  S
C756        H761   1.084       .  S
C756        C757   1.406   1_554  A
C757        C758   1.419   1_556  A
C758        C759   1.508   1_554  S
C759        H763   1.111   1_556  S
C759        H764   1.107       .  S
C759        H765   1.110       .  S
C762        H766   1.111       .  S
C762        H767   1.109       .  S
C762        H768   1.111       .  S
C769        H776   1.084       .  S
C769        C770   1.405       .  A
C769        C774   1.403       .  A
C770        C771   1.415       .  A
C771        C772   1.408       .  A
C771        C778   1.507       .  S
C772        H777   1.084       .  S
C772        C773   1.403       .  A
C773        C774   1.414       .  A
C774        C775   1.508       .  S
C775        H779   1.111       .  S
C775        H780   1.110       .  S
C775        H781   1.109       .  S
C778        H782   1.111       .  S
C778        H783   1.110       .  S
C778        H784   1.111       .  S
C785        H792   1.084       .  S
C785        C786   1.406   1_455  A
C785        C790   1.406       .  A
C786        C787   1.426       .  A
C787        C788   1.405   1_655  A
C787        C794   1.511       .  S
C788        H793   1.084       .  S
C788        C789   1.403       .  A
C789        C790   1.423       .  A
C790        C791   1.511       .  S
C791        H795   1.111       .  S
C791        H796   1.110       .  S
C791        H797   1.110       .  S
C794        H798   1.110       .  S
C794        H799   1.110       .  S
C794        H800   1.111       .  S
C801        H808   1.084       .  S
C801        C802   1.404   1_655  A
C801        C806   1.405       .  A
C802        C803   1.425       .  A
C803        C804   1.409   1_455  A
C803        C810   1.509       .  S
C804        H809   1.084       .  S
C804        C805   1.403       .  A
C805        C806   1.423       .  A
C806        C807   1.507       .  S
C807        H811   1.111       .  S
C807        H812   1.110       .  S
C807        H813   1.108       .  S
C810        H814   1.109       .  S
C810        H815   1.111       .  S
C810        H816   1.111       .  S
C817        H824   1.084       .  S
C817        C818   1.397       .  A
C817        C822   1.405       .  A
C818        C819   1.420       .  A
C819        C820   1.404       .  A
C819        C826   1.509   1_556  S
C820        H825   1.084   1_556  S
C820        C821   1.401       .  A
C821        C822   1.427       .  A
C822        C823   1.510       .  S
C823        H827   1.111       .  S
C823        H828   1.110       .  S
C823        H829   1.110       .  S
C826        H830   1.109       .  S
C826        H831   1.110       .  S
C826        H832   1.111       .  S
C833        H840   1.084       .  S
C833        C834   1.403       .  A
C833        C838   1.405   1_655  A
C834        C835   1.428       .  A
C835        C836   1.404       .  A
C835        C842   1.512       .  S
C836        H841   1.084       .  S
C836        C837   1.402   1_655  A
C837        C838   1.425       .  A
C838        C839   1.508       .  S
C839        H843   1.111       .  S
C839        H844   1.110       .  S
C839        H845   1.110       .  S
C842        H846   1.110       .  S
C842        H847   1.110       .  S
C842        H848   1.111       .  S
C849        H856   1.084       .  S
C849        C850   1.405       .  A
C849        C854   1.404       .  A
C850        C851   1.422       .  A
C851        C852   1.403       .  A
C851        C858   1.509       .  S
C852        H857   1.084       .  S
C852        C853   1.402       .  A
C853        C854   1.415       .  A
C854        C855   1.508       .  S
C855        H859   1.111       .  S
C855        H860   1.111       .  S
C855        H861   1.109       .  S
C858        H862   1.109       .  S
C858        H863   1.111       .  S
C858        H864   1.111       .  S
C865        H872   1.084       .  S
C865        C866   1.402       .  A
C865        C870   1.404       .  A
C866        C867   1.413       .  A
C867        C868   1.404       .  A
C867        C874   1.507       .  S
C868        H873   1.084       .  S
C868        C869   1.406       .  A
C869        C870   1.416       .  A
C870        C871   1.508       .  S
C871        H875   1.111       .  S
C871        H876   1.109       .  S
C871        H877   1.111       .  S
C874        H878   1.110       .  S
C874        H879   1.107       .  S
C874        H880   1.111       .  S
C881        H888   1.084   1_655  S
C881        C882   1.404   1_655  A
C881        C886   1.408       .  A
C882        C883   1.427       .  A
C883        C884   1.402   1_455  A
C883        C890   1.512       .  S
C884        H889   1.084       .  S
C884        C885   1.403       .  A
C885        C886   1.425       .  A
C886        C887   1.508       .  S
C887        H891   1.111       .  S
C887        H892   1.107       .  S
C887        H893   1.110       .  S
C890        H894   1.110       .  S
C890        H895   1.110       .  S
C890        H896   1.111       .  S
C897        H904   1.084       .  S
C897        C898   1.408       .  A
C897        C902   1.397       .  A
C898        C899   1.409       .  A
C899        C900   1.405       .  A
C899        C906   1.507       .  S
C900        H905   1.084       .  S
C900        C901   1.412       .  A
C901        C902   1.413       .  A
C902        C903   1.510       .  S
C903        H907   1.111       .  S
C903        H908   1.110       .  S
C903        H909   1.111       .  S
C906        H910   1.110       .  S
C906        H911   1.110       .  S
C906        H912   1.111       .  S
C913        H920   1.083       .  S
C913        C914   1.415       .  A
C913        C918   1.403       .  A
C914        C915   1.415       .  A
C915        C916   1.403       .  A
C915        C922   1.509       .  S
C916        H921   1.084       .  S
C916        C917   1.410       .  A
C917        C918   1.410       .  A
C918        C919   1.509       .  S
C919        H923   1.111       .  S
C919        H924   1.110       .  S
C919        H925   1.110       .  S
C922        H926   1.110       .  S
C922        H927   1.110       .  S
C922        H928   1.111       .  S
C929        H936   1.084       .  S
C929        C930   1.411       .  A
C929        C934   1.397       .  A
C930        C931   1.409       .  A
C931        C932   1.406       .  A
C931        C938   1.506       .  S
C932        H937   1.084       .  S
C932        C933   1.412       .  A
C933        C934   1.410       .  A
C934        C935   1.509       .  S
C935        H939   1.111       .  S
C935        H940   1.109       .  S
C935        H941   1.111       .  S
C938        H942   1.110       .  S
C938        H943   1.110       .  S
C938        H944   1.111       .  S
C945        H952   1.083       .  S
C945        C946   1.413       .  A
C945        C950   1.401       .  A
C946        C947   1.411       .  A
C947        C948   1.402       .  A
C947        C954   1.508       .  S
C948        H953   1.083       .  S
C948        C949   1.414       .  A
C949        C950   1.412       .  A
C950        C951   1.509       .  S
C951        H955   1.111       .  S
C951        H956   1.110       .  S
C951        H957   1.110       .  S
C954        H958   1.111       .  S
C954        H959   1.110       .  S
C954        H960   1.110       .  S
C961        H968   1.084       .  S
C961        C962   1.405       .  A
C961        C966   1.405       .  A
C962        C963   1.415       .  A
C963        C964   1.401       .  A
C963        C970   1.509       .  S
C964        H969   1.082   1_556  S
C964        C965   1.406   1_556  A
C965        C966   1.419   1_554  A
C966        C967   1.509       .  S
C967        H971   1.111       .  S
C967        H972   1.110   1_556  S
C967        H973   1.110   1_556  S
C970        H974   1.110       .  S
C970        H975   1.109       .  S
C970        H976   1.110       .  S
C977        H984   1.084       .  S
C977        C978   1.405       .  A
C977        C982   1.403       .  A
C978        C979   1.421       .  A
C979        C980   1.404       .  A
C979        C986   1.510       .  S
C980        H985   1.083       .  S
C980        C981   1.407       .  A
C981        C982   1.422       .  A
C982        C983   1.509       .  S
C983        H987   1.111       .  S
C983        H988   1.110       .  S
C983        H989   1.110       .  S
C986        H990   1.110       .  S
C986        H991   1.110       .  S
C986        H992   1.111       .  S
C993       H1000   1.083   1_554  S
C993        C994   1.417       .  A
C993        C998   1.408       .  A
C994        C995   1.419       .  A
C995        C996   1.402       .  A
C995       C1002   1.509       .  S
C996       H1001   1.085       .  S
C996        C997   1.405       .  A
C997        C998   1.406       .  A
C998        C999   1.506   1_554  S
C999       H1003   1.111       .  S
C999       H1004   1.110       .  S
C999       H1005   1.110   1_556  S
C1002      H1006   1.110       .  S
C1002      H1007   1.110       .  S
C1002      H1008   1.111       .  S
C1009      H1016   1.084       .  S
C1009      C1010   1.412       .  A
C1009      C1014   1.401       .  A
C1010      C1011   1.416       .  A
C1011      C1012   1.401       .  A
C1011      C1018   1.509       .  S
C1012      H1017   1.085       .  S
C1012      C1013   1.405       .  A
C1013      C1014   1.406       .  A
C1014      C1015   1.507       .  S
C1015      H1019   1.111       .  S
C1015      H1020   1.110       .  S
C1015      H1021   1.111       .  S
C1018      H1022   1.110       .  S
C1018      H1023   1.110       .  S
C1018      H1024   1.111       .  S
C1025      H1032   1.084       .  S
C1025      C1026   1.401       .  A
C1025      C1030   1.409       .  A
C1026      C1027   1.417       .  A
C1027      C1028   1.399       .  A
C1027      C1034   1.510       .  S
C1028      H1033   1.084       .  S
C1028      C1029   1.400       .  A
C1029      C1030   1.421       .  A
C1030      C1031   1.507       .  S
C1031      H1035   1.111       .  S
C1031      H1036   1.108       .  S
C1031      H1037   1.110       .  S
C1034      H1038   1.111       .  S
C1034      H1039   1.106       .  S
C1034      H1040   1.111       .  S
C1041      H1048   1.084       .  S
C1041      C1042   1.401       .  A
C1041      C1046   1.405       .  A
C1042      C1043   1.421       .  A
C1043      C1044   1.404       .  A
C1043      C1050   1.508       .  S
C1044      H1049   1.084       .  S
C1044      C1045   1.405       .  A
C1045      C1046   1.422       .  A
C1046      C1047   1.503       .  S
C1047      H1051   1.111       .  S
C1047      H1052   1.105       .  S
C1047      H1053   1.110       .  S
C1050      H1054   1.110       .  S
C1050      H1055   1.110       .  S
C1050      H1056   1.111   1_554  S
C1057      H1064   1.083       .  S
C1057      C1058   1.415       .  A
C1057      C1062   1.406       .  A
C1058      C1059   1.418       .  A
C1059      C1060   1.402       .  A
C1059      C1066   1.509       .  S
C1060      H1065   1.085       .  S
C1060      C1061   1.407       .  A
C1061      C1062   1.408       .  A
C1062      C1063   1.507       .  S
C1063      H1067   1.111       .  S
C1063      H1068   1.110       .  S
C1063      H1069   1.110       .  S
C1066      H1070   1.110       .  S
C1066      H1071   1.110       .  S
C1066      H1072   1.111       .  S
C1073      H1080   1.084       .  S
C1073      C1074   1.410       .  A
C1073      C1078   1.403       .  A
C1074      C1075   1.411       .  A
C1075      C1076   1.400       .  A
C1075      C1082   1.509       .  S
C1076      H1081   1.083       .  S
C1076      C1077   1.414       .  A
C1077      C1078   1.414       .  A
C1078      C1079   1.508       .  S
C1079      H1083   1.111       .  S
C1079      H1084   1.110       .  S
C1079      H1085   1.110       .  S
C1082      H1086   1.109       .  S
C1082      H1087   1.110       .  S
C1082      H1088   1.111       .  S
C1089      H1096   1.084       .  S
C1089      C1090   1.406       .  A
C1089      C1094   1.406       .  A
C1090      C1091   1.419       .  A
C1091      C1092   1.404       .  A
C1091      C1098   1.509       .  S
C1092      H1097   1.084       .  S
C1092      C1093   1.403       .  A
C1093      C1094   1.416       .  A
C1094      C1095   1.508       .  S
C1095      H1099   1.111       .  S
C1095      H1100   1.110       .  S
C1095      H1101   1.106       .  S
C1098      H1102   1.109       .  S
C1098      H1103   1.110       .  S
C1098      H1104   1.111       .  S
C1105      H1112   1.083       .  S
C1105      C1106   1.404       .  A
C1105      C1110   1.400       .  A
C1106      C1107   1.420       .  A
C1107      C1108   1.408       .  A
C1107      C1114   1.508       .  S
C1108      H1113   1.084       .  S
C1108      C1109   1.406       .  A
C1109      C1110   1.416       .  A
C1110      C1111   1.503       .  S
C1111      H1115   1.110       .  S
C1111      H1116   1.110       .  S
C1111      H1117   1.109       .  S
C1114      H1118   1.110       .  S
C1114      H1119   1.110       .  S
C1114      H1120   1.111       .  S
C1121      H1128   1.084       .  S
C1121      C1122   1.405       .  A
C1121      C1126   1.406       .  A
C1122      C1123   1.426       .  A
C1123      C1124   1.408       .  A
C1123      C1130   1.510       .  S
C1124      H1129   1.084       .  S
C1124      C1125   1.403       .  A
C1125      C1126   1.421       .  A
C1126      C1127   1.509       .  S
C1127      H1131   1.111       .  S
C1127      H1132   1.110       .  S
C1127      H1133   1.110       .  S
C1130      H1134   1.109       .  S
C1130      H1135   1.110       .  S
C1130      H1136   1.111       .  S
C1137      H1144   1.082       .  S
C1137      C1138   1.407       .  A
C1137      C1142   1.403       .  A
C1138      C1139   1.415       .  A
C1139      C1140   1.404       .  A
C1139      C1146   1.509       .  S
C1140      H1145   1.084       .  S
C1140      C1141   1.411       .  A
C1141      C1142   1.418       .  A
C1142      C1143   1.509       .  S
C1143      H1147   1.110       .  S
C1143      H1148   1.110       .  S
C1143      H1149   1.110       .  S
C1146      H1150   1.110       .  S
C1146      H1151   1.109       .  S
C1146      H1152   1.111       .  S
