geometry optimzed in LAMMPS
_audit_creation_date              2020-12-01 
_audit_creation_method            'lammps2cif' 
_symmetry_space_group_name_H-M    'P1' 
_symmetry_Int_Tables_number       1 
_symmetry_cell_setting            triclinic 
loop_ 
_symmetry_equiv_pos_as_xyz 
  x,y,z 
_cell_length_a                    50.58897774 
_cell_length_b                    38.38246081319887 
_cell_length_c                    49.06451204883958 
_cell_angle_alpha                 90.0062837905032 
_cell_angle_beta                  89.91111293154074 
_cell_angle_gamma                 89.99559959902754 
loop_ 
_atom_site_label 
_atom_site_type_symbol 
_atom_site_fract_x 
_atom_site_fract_y 
_atom_site_fract_z 
_atom_site_charge 
N1          N  0.14220303  0.07970118  0.41595559    -0.27000
N2          N  0.16486100  0.06666290  0.40714550    -0.34800
C3          C  0.18468551  0.07930305  0.42247231     0.01400
C4          C  0.17402838  0.10172458  0.44157984     0.07400
C5          C  0.14708613  0.10156899  0.43679977    -0.05700
H6          H  0.20531535  0.07262147  0.41988986     0.08100
H7          H  0.13205413  0.11527302  0.44828274     0.09300
Cu8        Cu  0.16795225  0.53189152  0.37497593     0.44200
Cu9        Cu  0.10559008  0.06391456  0.40129090     0.42000
Cu10       Cu  0.10752549  0.49269042  0.35201816     0.43900
N11         N  0.16632292  0.49599818  0.34347111    -0.34300
N12         N  0.14422575  0.48046094  0.33583470    -0.28600
C13         C  0.14970540  0.45787356  0.31564703    -0.04700
C14         C  0.17647363  0.45971339  0.31008531     0.07500
C15         C  0.18641372  0.48418825  0.32802038     0.01300
H16         H  0.13517677  0.44192761  0.30535513     0.09000
H17         H  0.20674925  0.49255848  0.32989776     0.08000
N18         N  0.07308902  0.51230574  0.36904446    -0.35800
N19         N  0.07224581  0.03844274  0.38663526    -0.28000
C20         C  0.04688417  0.04449244  0.39352711    -0.03200
C21         C  0.03123749  0.02109274  0.37955071     0.05400
C22         C  0.04834439  0.50111625  0.36423650     0.03500
H23         H  0.04039594  0.06427730  0.40775749     0.08600
H24         H  0.04324972  0.47996460  0.35063935     0.07400
N25         N  0.78878546  0.44371895  0.41520484    -0.27000
N26         N  0.76609377  0.45657084  0.40639550    -0.34800
C27         C  0.74629872  0.44392185  0.42181743     0.01400
C28         C  0.75701376  0.42168953  0.44098735     0.07400
C29         C  0.78395745  0.42195968  0.43614314    -0.05700
H30         H  0.72565550  0.45052442  0.41929302     0.08100
H31         H  0.79902790  0.40847314  0.44767924     0.09300
Cu32       Cu  0.76293260  0.99126491  0.37420041     0.44200
Cu33       Cu  0.82535793  0.45977531  0.40051892     0.42000
Cu34       Cu  0.82328517  0.03112977  0.35143320     0.43900
N35         N  0.76452513  0.02731506  0.34280691    -0.34300
N36         N  0.78657870  0.04308010  0.33525216    -0.28600
C37         C  0.78106412  0.06577556  0.31517323    -0.04700
C38         C  0.75432287  0.06377693  0.30959628     0.07500
C39         C  0.74443086  0.03909261  0.32741034     0.01300
H40         H  0.79554973  0.08194797  0.30499028     0.09000
H41         H  0.72411904  0.03059232  0.32926944     0.08000
N42         N  0.85775304  0.01179516  0.36847849    -0.35800
N43         N  0.85863826  0.98559894  0.38600454    -0.28000
C44         C  0.88398714  0.97978036  0.39297601    -0.03200
C45         C  0.89958707  0.00339231  0.37912100     0.05400
C46         C  0.88246378  0.02325574  0.36379037     0.03500
H47         H  0.89049614  0.46001668  0.40719008     0.08600
H48         H  0.88752226  0.04452124  0.35027510     0.07400
O49         O  0.25257837  0.39815278  0.22264493    -0.72600
O50         O  0.21315095  0.45156217  0.28033331    -0.73600
O51         O  0.25258631  0.39878519  0.28019388    -0.62200
O52         O  0.21317891  0.45093731  0.22197631    -0.71400
O53         O  0.18132845  0.41111601  0.22276632    -0.70200
O54         O  0.22068333  0.35903990  0.28096473    -0.61400
O55         O  0.18132967  0.41169264  0.28013982    -0.73900
O56         O  0.22066418  0.35841487  0.22248183    -0.72700
Cu57       Cu  0.23394724  0.42632071  0.25127673     1.04600
Cu58       Cu  0.19996058  0.38357521  0.25159951     1.04300
C59         C  0.24270933  0.36990977  0.21342317     0.93600
C60         C  0.19104313  0.44007939  0.28924719     0.92700
C61         C  0.24273102  0.37073228  0.28979698     0.84900
C62         C  0.19106727  0.43929937  0.21327708     0.91100
N63         N  0.28874318  0.32974589  0.33687311    -0.27000
N64         N  0.26608475  0.31671385  0.34568239    -0.34800
C65         C  0.24626278  0.32933553  0.33034257     0.01400
C66         C  0.25692207  0.35173781  0.31122806     0.07400
C67         C  0.28386234  0.35159131  0.31601750    -0.05700
H68         H  0.22563320  0.32265677  0.33292251     0.08100
H69         H  0.29889502  0.36528750  0.30453457     0.09300
Cu70       Cu  0.26298301  0.28197372  0.37786727     0.44200
Cu71       Cu  0.32535913  0.31398676  0.35154865     0.42000
Cu72       Cu  0.32341184  0.24283461  0.40086087     0.43900
N73         N  0.26460822  0.24608207  0.40936961    -0.34300
N74         N  0.28671123  0.23056627  0.41701696    -0.28600
C75         C  0.28123415  0.20796115  0.43718822    -0.04700
C76         C  0.25446050  0.20976544  0.44272882     0.07500
C77         C  0.24451474  0.23424060  0.42479875     0.01300
H78         H  0.29576774  0.19202628  0.44748358     0.09000
H79         H  0.22417385  0.24258750  0.42290891     0.08000
N80         N  0.35785285  0.26242070  0.38383507    -0.35800
N81         N  0.35870187  0.28853032  0.36622471    -0.28000
C82         C  0.38406493  0.29455356  0.35932741    -0.03200
C83         C  0.39970579  0.27116482  0.37332162     0.05400
C84         C  0.38259435  0.25122281  0.38865111     0.03500
H85         H  0.39055756  0.31430903  0.34507875     0.08600
H86         H  0.38768337  0.23008385  0.40226007     0.07400
N87         N  0.64214442  0.19367215  0.33759578    -0.27000
N88         N  0.66483269  0.20652119  0.34641550    -0.34800
C89         C  0.68463088  0.19389869  0.33098085     0.01400
C90         C  0.67392189  0.17168710  0.31179118     0.07400
C91         C  0.64697849  0.17194042  0.31663726    -0.05700
H92         H  0.70527276  0.20050034  0.33351358     0.08100
H93         H  0.63191237  0.15845652  0.30509309     0.09300
Cu94       Cu  0.66799182  0.24117356  0.37864245     0.44200
Cu95       Cu  0.60556709  0.20968875  0.35230213     0.42000
Cu96       Cu  0.60764543  0.28097690  0.40146664     0.43900
N97         N  0.66641125  0.27721970  0.41004406    -0.34300
N98         N  0.64435510  0.29296710  0.41762045    -0.28600
C99         C  0.64987577  0.31568281  0.43768688    -0.04700
C100        C  0.67662491  0.31371589  0.44323239     0.07500
C101        C  0.68651435  0.28902758  0.42541413     0.01300
H102        H  0.63539038  0.33185002  0.44788102     0.09000
H103        H  0.70683032  0.28054895  0.42353146     0.08000
N104        N  0.57317707  0.26165836  0.38441284    -0.35800
N105        N  0.57228903  0.23549075  0.36685632    -0.28000
C106        C  0.54693941  0.22969387  0.35987789    -0.03200
C107        C  0.53134249  0.25328988  0.37376054     0.05400
C108        C  0.54846787  0.27312130  0.38911402     0.03500
H109        H  0.54042850  0.20996092  0.34563651     0.08600
H110        H  0.54341249  0.29437278  0.40264854     0.07400
O111        O  0.71335301  0.32214973  0.47276397    -0.72600
O112        O  0.75286647  0.37622488  0.02989861    -0.73600
O113        O  0.71349258  0.32341821  0.03112582    -0.62200
O114        O  0.75277049  0.37495509  0.47234301    -0.70600
O115        O  0.72084202  0.41466548  0.47147267    -0.70200
O116        O  0.68163447  0.36322758  0.03021231    -0.61400
O117        O  0.72092253  0.41593014  0.02993681    -0.73900
O118        O  0.68152838  0.36202253  0.47285240    -0.72700
Cu119      Cu  0.73419824  0.34772355  0.00154646     1.04600
Cu120      Cu  0.70019304  0.39044832  0.00110168     1.04300
C121        C  0.69122975  0.33354118  0.46388286     0.93600
C122        C  0.74297940  0.40455052  0.03898151     0.92700
C123        C  0.69139377  0.33515708  0.03985283     0.84900
C124        C  0.74287820  0.40289429  0.46260438     0.91100
N125        N  0.28859621  0.32839901  0.16633425    -0.27000
N126        N  0.26595407  0.31494467  0.15795517    -0.34800
C127        C  0.24618382  0.32761360  0.17341113     0.01400
C128        C  0.25686309  0.35048443  0.19214840     0.07400
C129        C  0.28375892  0.35055011  0.18702019    -0.05700
H130        H  0.22556737  0.32074101  0.17110757     0.08100
H131        H  0.29879573  0.36470343  0.19810657     0.09300
Cu132      Cu  0.26285502  0.27989575  0.12597145     0.44200
Cu133      Cu  0.32515215  0.31303934  0.15116080     0.42000
Cu134      Cu  0.32350380  0.24203996  0.10173847     0.43900
N135        N  0.26456474  0.24437534  0.09419591    -0.34300
N136        N  0.28673522  0.22934680  0.08608949    -0.28600
C137        C  0.28128102  0.20704291  0.06572078    -0.04700
C138        C  0.25445251  0.20856010  0.06052506     0.07500
C139        C  0.24444921  0.23253163  0.07886555     0.01300
H140        H  0.29587107  0.19160574  0.05500490     0.09000
H141        H  0.22406722  0.24061223  0.08104290     0.08000
N142        N  0.35788556  0.26206296  0.11845254    -0.35800
N143        N  0.35860514  0.28811866  0.13611803    -0.28000
C144        C  0.38393485  0.29437006  0.14292412    -0.03200
C145        C  0.39969265  0.27118964  0.12881239     0.05400
C146        C  0.38268579  0.25112659  0.11350569     0.03500
H147        H  0.39031976  0.31406550  0.15725813     0.08600
H148        H  0.38787761  0.23000893  0.09989770     0.07400
N149        N  0.64456073  0.29565138  0.08682799    -0.27000
N150        N  0.66669485  0.28055294  0.09488330    -0.34800
C151        C  0.68682745  0.29221975  0.07942629     0.01400
C152        C  0.67686402  0.31613972  0.06105236     0.07400
C153        C  0.65004995  0.31781553  0.06636752    -0.05700
H154        H  0.70718400  0.28401638  0.08151115     0.08100
H155        H  0.63548352  0.33323326  0.05564943     0.09300
Cu156      Cu  0.66825866  0.24506507  0.12668222     0.44200
Cu157      Cu  0.60776428  0.28315615  0.10259034     0.42000
Cu158      Cu  0.60574806  0.21218872  0.15195167     0.43900
N159        N  0.66494688  0.20994379  0.15860356    -0.34300
N160        N  0.64225006  0.19658999  0.16700068    -0.28600
C161        C  0.64699731  0.17430187  0.18760195    -0.04700
C162        C  0.67388992  0.17417735  0.19265598     0.07500
C163        C  0.68465962  0.19707370  0.17396575     0.01300
H164        H  0.63190689  0.16016886  0.19867215     0.09000
H165        H  0.70530457  0.20380750  0.17161587     0.08000
N166        N  0.57240145  0.23726741  0.13692403    -0.35800
N167        N  0.57326676  0.26332136  0.11926786    -0.28000
C168        C  0.54851632  0.27431801  0.11423208    -0.03200
C169        C  0.53138404  0.25429919  0.12947260     0.05400
C170        C  0.54701849  0.23107625  0.14363807     0.03500
H171        H  0.54343910  0.29540563  0.10056959     0.08600
H172        H  0.54051003  0.21135171  0.15790533     0.07400
O173        O  0.74934727  0.11322246  0.22259086    -0.72600
O174        O  0.71010013  0.16467949  0.28130879    -0.73600
O175        O  0.74942702  0.11205188  0.27995271    -0.62200
O176        O  0.71004702  0.16592009  0.22284359    -0.70600
O177        O  0.67810964  0.12621233  0.22286984    -0.70200
O178        O  0.71761353  0.07217010  0.28003093    -0.61400
O179        O  0.67818285  0.12495988  0.28042638    -0.73900
O180        O  0.71749547  0.07341093  0.22166724    -0.72700
Cu181      Cu  0.73076878  0.14045567  0.25169041     1.04600
Cu182      Cu  0.69677324  0.09772457  0.25123402     1.04300
C183        C  0.73959621  0.08514652  0.21294921     0.93600
C184        C  0.68806523  0.15290217  0.29017042     0.92700
C185        C  0.73972756  0.08357556  0.28892470     0.84900
C186        C  0.68799594  0.15453573  0.21378960     0.91100
O187        O  0.17840013  0.14814645  0.03016367    -0.72600
O188        O  0.21778462  0.20157801  0.47247361    -0.73600
O189        O  0.17836493  0.14878227  0.47261517    -0.62200
O190        O  0.21778661  0.20093961  0.03082915    -0.70600
O191        O  0.24964373  0.16112156  0.03001491    -0.70200
O192        O  0.21027966  0.10904752  0.47182250    -0.61400
O193        O  0.24961816  0.16171896  0.47264395    -0.73900
O194        O  0.21032180  0.10841234  0.03030463    -0.72700
Cu195      Cu  0.19700978  0.17632238  0.00153131     1.04600
Cu196      Cu  0.23100695  0.13358476  0.00118351     1.04300
C197        C  0.18827792  0.11990404  0.03937503     0.93600
C198        C  0.23989506  0.19010809  0.46355192     0.92700
C199        C  0.18822388  0.12073116  0.46300358     0.84900
C200        C  0.23990406  0.18930212  0.03951568     0.91100
N201        N  0.14240158  0.07840092  0.08646431    -0.27000
N202        N  0.16504491  0.06494754  0.09484383    -0.34800
C203        C  0.18481395  0.07761125  0.07938661     0.01400
C204        C  0.17413158  0.10047727  0.06064932     0.07400
C205        C  0.14723648  0.10054558  0.06577868    -0.05700
H206        H  0.20543125  0.07073988  0.08169008     0.08100
H207        H  0.13219819  0.11469715  0.05469341     0.09300
Cu208      Cu  0.16814531  0.52990766  0.12683082     0.44200
Cu209      Cu  0.10584274  0.06305484  0.10162974     0.42000
Cu210      Cu  0.10748494  0.49209127  0.15105959     0.43900
N211        N  0.16642484  0.49438885  0.15860331    -0.34300
N212        N  0.14424992  0.47937529  0.16670650    -0.28600
C213        C  0.14969690  0.45706555  0.18707041    -0.04700
C214        C  0.17652543  0.45856308  0.19226731     0.07500
C215        C  0.18653621  0.48252958  0.17393228     0.01300
H216        H  0.13510191  0.44163895  0.19778304     0.09000
H217        H  0.20692072  0.49059641  0.17175796     0.08000
N218        N  0.07310396  0.51210553  0.13433711    -0.35800
N219        N  0.07238581  0.03814877  0.11666498    -0.28000
C220        C  0.04705730  0.04439218  0.10984737    -0.03200
C221        C  0.03129898  0.02121908  0.12395903     0.05400
C222        C  0.04830427  0.50116923  0.13927732     0.03500
H223        H  0.04067389  0.06407519  0.09550459     0.08600
H224        H  0.04311195  0.48005814  0.15288667     0.07400
N225        N  0.78644539  0.04560429  0.16599652    -0.27000
N226        N  0.76431052  0.03052292  0.15792678    -0.34800
C227        C  0.74417389  0.04220424  0.17337487     0.01400
C228        C  0.75413501  0.06611748  0.19175777     0.07400
C229        C  0.78095258  0.06777328  0.18645784    -0.05700
H230        H  0.72381571  0.03401862  0.17127560     0.08100
H231        H  0.79551782  0.08318323  0.19718468     0.09300
Cu232      Cu  0.76274800  0.99505033  0.12611238     0.44200
Cu233      Cu  0.82324215  0.03308893  0.15023716     0.42000
Cu234      Cu  0.82525035  0.46218749  0.10079533     0.43900
N235        N  0.76604859  0.45995045  0.09416982    -0.34300
N236        N  0.78874298  0.44660131  0.08575459    -0.28600
C237        C  0.78398811  0.42432096  0.06514715    -0.04700
C238        C  0.75709293  0.42419746  0.06010795     0.07500
C239        C  0.74632942  0.44708593  0.07881320     0.01300
H240        H  0.79907430  0.41018908  0.05406545     0.09000
H241        H  0.72568448  0.45381415  0.08117970     0.08000
N242        N  0.85859754  0.98724510  0.11583998    -0.35800
N243        N  0.85773495  0.01327008  0.13352725    -0.28000
C244        C  0.88248561  0.02426040  0.13856512    -0.03200
C245        C  0.89961514  0.00426829  0.12329376     0.05400
C246        C  0.88397895  0.98106716  0.10910771     0.03500
H247        H  0.88756461  0.04532794  0.15224823     0.08600
H248        H  0.89048491  0.46136783  0.09481372     0.07400
C249        C  0.00302882  0.01801965  0.12269343    -0.18200
C250        C  0.97933582  0.01475369  0.12209286     0.05900
C251        C  0.95159989  0.01068369  0.12192213     0.07700
C252        C  0.92789970  0.00742990  0.12225819    -0.19000
C253        C  0.50309821  0.25745215  0.13049756    -0.18200
C254        C  0.47939666  0.26069414  0.13082950     0.05900
C255        C  0.45165889  0.26474764  0.13065987     0.07700
C256        C  0.42796435  0.26800054  0.13006533    -0.19000
C257        C  0.42798558  0.26789011  0.37215953    -0.18200
C258        C  0.45168096  0.26453402  0.37175032     0.05900
C259        C  0.47941032  0.26030398  0.37186476     0.07700
C260        C  0.50309138  0.25683565  0.37245043    -0.19000
C261        C  0.92784059  0.00690853  0.38042385    -0.18200
C262        C  0.95152441  0.01034313  0.38100516     0.05900
C263        C  0.97925745  0.01452916  0.38111679     0.07700
C264        C  0.00295548  0.01785006  0.38070777    -0.19000
N265        N  0.14220300  0.07970115  0.91595555    -0.27000
N266        N  0.16486094  0.06666283  0.90714550    -0.34800
C267        C  0.18468549  0.07930291  0.92247232     0.01400
C268        C  0.17402836  0.10172448  0.94157982     0.07400
C269        C  0.14708610  0.10156897  0.93679977    -0.05700
H270        H  0.20531522  0.07262128  0.91988988     0.08100
H271        H  0.13205425  0.11527292  0.94828267     0.09300
Cu272      Cu  0.16795210  0.53189137  0.87497601     0.44200
Cu273      Cu  0.10558997  0.06391467  0.90129080     0.42000
Cu274      Cu  0.10752550  0.49269026  0.85201824     0.43900
N275        N  0.16632288  0.49599824  0.84347110    -0.34300
N276        N  0.14422573  0.48046086  0.83583475    -0.28600
C277        C  0.14970544  0.45787354  0.81564709    -0.04700
C278        C  0.17647365  0.45971342  0.81008533     0.07500
C279        C  0.18641367  0.48418834  0.82802038     0.01300
H280        H  0.13517675  0.44192744  0.80535515     0.09000
H281        H  0.20674940  0.49255865  0.82989782     0.08000
N282        N  0.07308903  0.51230575  0.86904454    -0.35800
N283        N  0.07224579  0.03844268  0.88663528    -0.28000
C284        C  0.04688416  0.04449240  0.89352713    -0.03200
C285        C  0.03123747  0.02109274  0.87955071     0.05400
C286        C  0.04834441  0.50111628  0.86423654     0.03500
H287        H  0.04039594  0.06427724  0.90775747     0.08600
H288        H  0.04324975  0.47996446  0.85063931     0.07400
N289        N  0.78878548  0.44371904  0.91520491    -0.27000
N290        N  0.76609381  0.45657093  0.90639555    -0.34800
C291        C  0.74629875  0.44392193  0.92181747     0.01400
C292        C  0.75701376  0.42168955  0.94098737     0.07400
C293        C  0.78395746  0.42195973  0.93614321    -0.05700
H294        H  0.72565551  0.45052447  0.91929302     0.08100
H295        H  0.79902783  0.40847321  0.94767925     0.09300
Cu296      Cu  0.76293263  0.99126476  0.87420028     0.44200
Cu297      Cu  0.82535798  0.45977518  0.90051897     0.42000
Cu298      Cu  0.82328520  0.03112985  0.85143307     0.43900
N299        N  0.76452521  0.02731497  0.84280680    -0.34300
N300        N  0.78657873  0.04308010  0.83525206    -0.28600
C301        C  0.78106409  0.06577560  0.81517317    -0.04700
C302        C  0.75432283  0.06377695  0.80959627     0.07500
C303        C  0.74443087  0.03909254  0.82741031     0.01300
H304        H  0.79554968  0.08194803  0.80499017     0.09000
H305        H  0.72411915  0.03059219  0.82926945     0.08000
N306        N  0.85775304  0.01179510  0.86847838    -0.35800
N307        N  0.85863825  0.98559890  0.88600445    -0.28000
C308        C  0.88398714  0.97978041  0.89297596    -0.03200
C309        C  0.89958707  0.00339241  0.87912102     0.05400
C310        C  0.88246379  0.02325584  0.86379035     0.03500
H311        H  0.89049618  0.46001666  0.90719008     0.08600
H312        H  0.88752224  0.04452123  0.85027520     0.07400
O313        O  0.25257826  0.39815283  0.72264483    -0.72600
O314        O  0.21315096  0.45156201  0.78033333    -0.73600
O315        O  0.25258637  0.39878518  0.78019379    -0.62200
O316        O  0.21317891  0.45093738  0.72197637    -0.71400
O317        O  0.18132847  0.41111605  0.72276636    -0.70200
O318        O  0.22068335  0.35903994  0.78096479    -0.61400
O319        O  0.18132960  0.41169261  0.78013987    -0.73900
O320        O  0.22066419  0.35841474  0.72248191    -0.72700
Cu321      Cu  0.23394723  0.42632064  0.75127671     1.04600
Cu322      Cu  0.19996056  0.38357514  0.75159957     1.04300
C323        C  0.24270927  0.36990976  0.71342316     0.93600
C324        C  0.19104312  0.44007933  0.78924723     0.92700
C325        C  0.24273106  0.37073234  0.78979697     0.84900
C326        C  0.19106728  0.43929945  0.71327713     0.91100
N327        N  0.28874317  0.32974582  0.83687302    -0.27000
N328        N  0.26608476  0.31671380  0.84568235    -0.34800
C329        C  0.24626280  0.32933561  0.83034259     0.01400
C330        C  0.25692209  0.35173794  0.81122810     0.07400
C331        C  0.28386235  0.35159139  0.81601750    -0.05700
H332        H  0.22563320  0.32265683  0.83292249     0.08100
H333        H  0.29889505  0.36528762  0.80453462     0.09300
Cu334      Cu  0.26298304  0.28197361  0.87786730     0.44200
Cu335      Cu  0.32535905  0.31398678  0.85154856     0.42000
Cu336      Cu  0.32341187  0.24283445  0.90086093     0.43900
N337        N  0.26460824  0.24608210  0.90936969    -0.34300
N338        N  0.28671126  0.23056633  0.91701707    -0.28600
C339        C  0.28123415  0.20796120  0.93718828    -0.04700
C340        C  0.25446049  0.20976541  0.94272884     0.07500
C341        C  0.24451476  0.23424054  0.92479876     0.01300
H342        H  0.29576780  0.19202627  0.94748366     0.09000
H343        H  0.22417371  0.24258744  0.92290884     0.08000
N344        N  0.35785282  0.26242063  0.88383511    -0.35800
N345        N  0.35870181  0.28853024  0.86622471    -0.28000
C346        C  0.38406487  0.29455348  0.85932748    -0.03200
C347        C  0.39970577  0.27116484  0.87332173     0.05400
C348        C  0.38259433  0.25122279  0.88865121     0.03500
H349        H  0.39055756  0.31430906  0.84507873     0.08600
H350        H  0.38768335  0.23008386  0.90226016     0.07400
N351        N  0.64214444  0.19367216  0.83759581    -0.27000
N352        N  0.66483271  0.20652120  0.84641549    -0.34800
C353        C  0.68463091  0.19389869  0.83098087     0.01400
C354        C  0.67392194  0.17168703  0.81179127     0.07400
C355        C  0.64697851  0.17194033  0.81663735    -0.05700
H356        H  0.70527278  0.20050041  0.83351358     0.08100
H357        H  0.63191246  0.15845649  0.80509324     0.09300
Cu358      Cu  0.66799184  0.24117350  0.87864241     0.44200
Cu359      Cu  0.60556712  0.20968883  0.85230219     0.42000
Cu360      Cu  0.60764543  0.28097697  0.90146670     0.43900
N361        N  0.66641119  0.27721974  0.91004409    -0.34300
N362        N  0.64435503  0.29296716  0.91762050    -0.28600
C363        C  0.64987566  0.31568291  0.93768695    -0.04700
C364        C  0.67662482  0.31371594  0.94323243     0.07500
C365        C  0.68651422  0.28902767  0.92541417     0.01300
H366        H  0.63539040  0.33185000  0.94788098     0.09000
H367        H  0.70683043  0.28054901  0.92353150     0.08000
N368        N  0.57317708  0.26165834  0.88441294    -0.35800
N369        N  0.57228906  0.23549077  0.86685638    -0.28000
C370        C  0.54693945  0.22969391  0.85987795    -0.03200
C371        C  0.53134250  0.25328980  0.87376063     0.05400
C372        C  0.54846788  0.27312130  0.88911409     0.03500
H373        H  0.54042853  0.20996091  0.84563643     0.08600
H374        H  0.54341254  0.29437274  0.90264848     0.07400
O375        O  0.71335299  0.32214979  0.97276389    -0.72600
O376        O  0.75286649  0.37622492  0.52989859    -0.73600
O377        O  0.71349265  0.32341828  0.53112591    -0.62200
O378        O  0.75277047  0.37495507  0.97234301    -0.70600
O379        O  0.72084203  0.41466550  0.97147270    -0.70200
O380        O  0.68163447  0.36322755  0.53021227    -0.61400
O381        O  0.72092255  0.41593017  0.52993684    -0.73900
O382        O  0.68152837  0.36202261  0.97285236    -0.72700
Cu383      Cu  0.73419825  0.34772359  0.50154651     1.04600
Cu384      Cu  0.70019305  0.39044833  0.50110170     1.04300
C385        C  0.69122970  0.33354125  0.96388283     0.93600
C386        C  0.74297943  0.40455055  0.53898151     0.92700
C387        C  0.69139380  0.33515711  0.53985286     0.84900
C388        C  0.74287820  0.40289430  0.96260440     0.91100
N389        N  0.28859618  0.32839907  0.66633430    -0.27000
N390        N  0.26595406  0.31494472  0.65795519    -0.34800
C391        C  0.24618379  0.32761362  0.67341115     0.01400
C392        C  0.25686304  0.35048441  0.69214844     0.07400
C393        C  0.28375890  0.35055016  0.68702030    -0.05700
H394        H  0.22556734  0.32074106  0.67110753     0.08100
H395        H  0.29879552  0.36470335  0.69810658     0.09300
Cu396      Cu  0.26285504  0.27989587  0.62597136     0.44200
Cu397      Cu  0.32515218  0.31303941  0.65116087     0.42000
Cu398      Cu  0.32350383  0.24204006  0.60173834     0.43900
N399        N  0.26456471  0.24437534  0.59419589    -0.34300
N400        N  0.28673522  0.22934687  0.58608945    -0.28600
C401        C  0.28128102  0.20704283  0.56572083    -0.04700
C402        C  0.25445250  0.20855996  0.56052514     0.07500
C403        C  0.24444919  0.23253150  0.57886559     0.01300
H404        H  0.29587105  0.19160572  0.55500500     0.09000
H405        H  0.22406713  0.24061215  0.58104290     0.08000
N406        N  0.35788559  0.26206304  0.61845248    -0.35800
N407        N  0.35860515  0.28811861  0.63611809    -0.28000
C408        C  0.38393486  0.29437007  0.64292417    -0.03200
C409        C  0.39969266  0.27118969  0.62881238     0.05400
C410        C  0.38268583  0.25112668  0.61350560     0.03500
H411        H  0.39031972  0.31406545  0.65725807     0.08600
H412        H  0.38787766  0.23000919  0.59989765     0.07400
N413        N  0.64456076  0.29565139  0.58682802    -0.27000
N414        N  0.66669488  0.28055296  0.59488333    -0.34800
C415        C  0.68682751  0.29221982  0.57942635     0.01400
C416        C  0.67686404  0.31613979  0.56105242     0.07400
C417        C  0.65004997  0.31781552  0.56636754    -0.05700
H418        H  0.70718394  0.28401655  0.58151119     0.08100
H419        H  0.63548349  0.33323318  0.55564937     0.09300
Cu420      Cu  0.66825869  0.24506515  0.62668228     0.44200
Cu421      Cu  0.60776429  0.28315598  0.60259023     0.42000
Cu422      Cu  0.60574797  0.21218876  0.65195158     0.43900
N423        N  0.66494683  0.20994374  0.65860352    -0.34300
N424        N  0.64225001  0.19659004  0.66700070    -0.28600
C425        C  0.64699730  0.17430191  0.68760199    -0.04700
C426        C  0.67388993  0.17417727  0.69265590     0.07500
C427        C  0.68465960  0.19707371  0.67396571     0.01300
H428        H  0.63190692  0.16016896  0.69867225     0.09000
H429        H  0.70530448  0.20380763  0.67161588     0.08000
N430        N  0.57240144  0.23726736  0.63692401    -0.35800
N431        N  0.57326676  0.26332140  0.61926793    -0.28000
C432        C  0.54851632  0.27431804  0.61423219    -0.03200
C433        C  0.53138403  0.25429909  0.62947262     0.05400
C434        C  0.54701848  0.23107608  0.64363801     0.03500
H435        H  0.54343910  0.29540568  0.60056973     0.08600
H436        H  0.54051008  0.21135151  0.65790518     0.07400
O437        O  0.74934729  0.11322254  0.72259080    -0.72600
O438        O  0.71010011  0.16467956  0.78130873    -0.73600
O439        O  0.74942696  0.11205190  0.77995276    -0.62200
O440        O  0.71004708  0.16592000  0.72284349    -0.70600
O441        O  0.67810958  0.12621237  0.72286985    -0.70200
O442        O  0.71761353  0.07217002  0.78003080    -0.61400
O443        O  0.67818286  0.12495989  0.78042638    -0.73900
O444        O  0.71749545  0.07341103  0.72166722    -0.72700
Cu445      Cu  0.73076880  0.14045572  0.75169039     1.04600
Cu446      Cu  0.69677317  0.09772459  0.75123397     1.04300
C447        C  0.73959621  0.08514659  0.71294918     0.93600
C448        C  0.68806525  0.15290218  0.79017042     0.92700
C449        C  0.73972751  0.08357552  0.78892466     0.84900
C450        C  0.68799598  0.15453566  0.71378951     0.91100
O451        O  0.17840017  0.14814654  0.53016370    -0.72600
O452        O  0.21778461  0.20157804  0.97247369    -0.73600
O453        O  0.17836490  0.14878222  0.97261512    -0.62200
O454        O  0.21778670  0.20093969  0.53082905    -0.70600
O455        O  0.24964372  0.16112146  0.53001498    -0.70200
O456        O  0.21027966  0.10904751  0.97182244    -0.61400
O457        O  0.24961815  0.16171900  0.97264397    -0.73900
O458        O  0.21032180  0.10841238  0.53030472    -0.72700
Cu459      Cu  0.19700982  0.17632244  0.50153126     1.04600
Cu460      Cu  0.23100697  0.13358469  0.50118355     1.04300
C461        C  0.18827793  0.11990413  0.53937511     0.93600
C462        C  0.23989504  0.19010810  0.96355194     0.92700
C463        C  0.18822386  0.12073110  0.96300355     0.84900
C464        C  0.23990409  0.18930207  0.53951569     0.91100
N465        N  0.14240157  0.07840076  0.58646429    -0.27000
N466        N  0.16504492  0.06494739  0.59484377    -0.34800
C467        C  0.18481396  0.07761127  0.57938665     0.01400
C468        C  0.17413158  0.10047735  0.56064940     0.07400
C469        C  0.14723647  0.10054551  0.56577873    -0.05700
H470        H  0.20543125  0.07073996  0.58169015     0.08100
H471        H  0.13219808  0.11469714  0.55469344     0.09300
Cu472      Cu  0.16814534  0.52990749  0.62683068     0.44200
Cu473      Cu  0.10584278  0.06305470  0.60162980     0.42000
Cu474      Cu  0.10748497  0.49209135  0.65105947     0.43900
N475        N  0.16642484  0.49438887  0.65860326    -0.34300
N476        N  0.14424991  0.47937541  0.66670651    -0.28600
C477        C  0.14969690  0.45706569  0.68707044    -0.04700
C478        C  0.17652545  0.45856314  0.69226731     0.07500
C479        C  0.18653624  0.48252960  0.67393221     0.01300
H480        H  0.13510189  0.44163912  0.69778309     0.09000
H481        H  0.20692066  0.49059639  0.67175782     0.08000
N482        N  0.07310395  0.51210563  0.63433705    -0.35800
N483        N  0.07238582  0.03814887  0.61666498    -0.28000
C484        C  0.04705733  0.04439228  0.60984729    -0.03200
C485        C  0.03129901  0.02121910  0.62395890     0.05400
C486        C  0.04830426  0.50116930  0.63927731     0.03500
H487        H  0.04067397  0.06407523  0.59550456     0.08600
H488        H  0.04311202  0.48005835  0.65288658     0.07400
N489        N  0.78644535  0.04560437  0.66599639    -0.27000
N490        N  0.76431044  0.03052300  0.65792669    -0.34800
C491        C  0.74417390  0.04220426  0.67337487     0.01400
C492        C  0.75413500  0.06611745  0.69175778     0.07400
C493        C  0.78095256  0.06777331  0.68645774    -0.05700
H494        H  0.72381544  0.03401853  0.67127565     0.08100
H495        H  0.79551784  0.08318331  0.69718458     0.09300
Cu496      Cu  0.76274802  0.99505017  0.62611246     0.44200
Cu497      Cu  0.82324214  0.03308880  0.65023706     0.42000
Cu498      Cu  0.82525023  0.46218759  0.60079542     0.43900
N499        N  0.76604860  0.45995044  0.59416983    -0.34300
N500        N  0.78874300  0.44660130  0.58575459    -0.28600
C501        C  0.78398814  0.42432097  0.56514712    -0.04700
C502        C  0.75709296  0.42419752  0.56010791     0.07500
C503        C  0.74632947  0.44708595  0.57881321     0.01300
H504        H  0.79907429  0.41018909  0.55406546     0.09000
H505        H  0.72568440  0.45381416  0.58117980     0.08000
N506        N  0.85859757  0.98724513  0.61584002    -0.35800
N507        N  0.85773500  0.01327013  0.63352726    -0.28000
C508        C  0.88248566  0.02426047  0.63856506    -0.03200
C509        C  0.89961517  0.00426832  0.62329374     0.05400
C510        C  0.88397896  0.98106717  0.60910774     0.03500
H511        H  0.88756472  0.04532813  0.65224819     0.08600
H512        H  0.89048491  0.46136764  0.59481370     0.07400
C513        C  0.00302885  0.01801960  0.62269333    -0.18200
C514        C  0.97933585  0.01475367  0.62209285     0.05900
C515        C  0.95159993  0.01068362  0.62192208     0.07700
C516        C  0.92789973  0.00742988  0.62225818    -0.19000
C517        C  0.50309820  0.25745197  0.63049762    -0.18200
C518        C  0.47939665  0.26069401  0.63082959     0.05900
C519        C  0.45165890  0.26474769  0.63065990     0.07700
C520        C  0.42796437  0.26800065  0.63006527    -0.19000
C521        C  0.42798556  0.26789017  0.87215957    -0.18200
C522        C  0.45168096  0.26453412  0.87175027     0.05900
C523        C  0.47941031  0.26030402  0.87186479     0.07700
C524        C  0.50309138  0.25683555  0.87245051    -0.19000
C525        C  0.92784058  0.00690861  0.88042381    -0.18200
C526        C  0.95152440  0.01034322  0.88100516     0.05900
C527        C  0.97925742  0.01452925  0.88111674     0.07700
C528        C  0.00295545  0.01785011  0.88070776    -0.19000
N529        N  0.14220306  0.57970120  0.41595556    -0.27000
N530        N  0.16486102  0.56666299  0.40714545    -0.34800
C531        C  0.18468556  0.57930308  0.42247229     0.01400
C532        C  0.17402838  0.60172458  0.44157984     0.07400
C533        C  0.14708612  0.60156900  0.43679980    -0.05700
H534        H  0.20531522  0.57262153  0.41988989     0.08100
H535        H  0.13205424  0.61527290  0.44828269     0.09300
Cu536      Cu  0.16795215  0.03189152  0.37497593     0.44200
Cu537      Cu  0.10559004  0.56391457  0.40129091     0.42000
Cu538      Cu  0.10752546  0.99269039  0.35201814     0.43900
N539        N  0.16632296  0.99599817  0.34347112    -0.34300
N540        N  0.14422579  0.98046091  0.33583470    -0.28600
C541        C  0.14970549  0.95787356  0.31564705    -0.04700
C542        C  0.17647371  0.95971339  0.31008532     0.07500
C543        C  0.18641378  0.98418827  0.32802039     0.01300
H544        H  0.13517681  0.94192751  0.30535506     0.09000
H545        H  0.20674935  0.99255854  0.32989775     0.08000
N546        N  0.07308901  0.01230576  0.36904447    -0.35800
N547        N  0.07224580  0.53844274  0.38663526    -0.28000
C548        C  0.04688418  0.54449242  0.39352710    -0.03200
C549        C  0.03123750  0.52109273  0.37955071     0.05400
C550        C  0.04834437  0.00111626  0.36423650     0.03500
H551        H  0.04039593  0.56427735  0.40775754     0.08600
H552        H  0.04324971  0.97996467  0.35063939     0.07400
N553        N  0.78878552  0.94371894  0.41520485    -0.27000
N554        N  0.76609380  0.95657083  0.40639549    -0.34800
C555        C  0.74629879  0.94392184  0.42181743     0.01400
C556        C  0.75701378  0.92168953  0.44098735     0.07400
C557        C  0.78395746  0.92195968  0.43614313    -0.05700
H558        H  0.72565539  0.95052445  0.41929300     0.08100
H559        H  0.79902801  0.90847303  0.44767931     0.09300
Cu560      Cu  0.76293267  0.49126493  0.37420041     0.44200
Cu561      Cu  0.82535801  0.95977529  0.40051893     0.42000
Cu562      Cu  0.82328526  0.53112977  0.35143318     0.43900
N563        N  0.76452522  0.52731507  0.34280689    -0.34300
N564        N  0.78657877  0.54308009  0.33525214    -0.28600
C565        C  0.78106419  0.56577559  0.31517322    -0.04700
C566        C  0.75432292  0.56377700  0.30959631     0.07500
C567        C  0.74443089  0.53909264  0.32741035     0.01300
H568        H  0.79554976  0.58194791  0.30499030     0.09000
H569        H  0.72411928  0.53059241  0.32926942     0.08000
N570        N  0.85775306  0.51179515  0.36847849    -0.35800
N571        N  0.85863825  0.48559893  0.38600454    -0.28000
C572        C  0.88398713  0.47978036  0.39297602    -0.03200
C573        C  0.89958709  0.50339230  0.37912101     0.05400
C574        C  0.88246380  0.52325573  0.36379038     0.03500
H575        H  0.89049615  0.96001675  0.40719002     0.08600
H576        H  0.88752228  0.54452125  0.35027509     0.07400
O577        O  0.25257836  0.89815276  0.22264492    -0.72600
O578        O  0.21315104  0.95156211  0.28033333    -0.73600
O579        O  0.25258638  0.89878510  0.28019377    -0.62200
O580        O  0.21317899  0.95093733  0.22197629    -0.71400
O581        O  0.18132852  0.91111601  0.22276631    -0.70200
O582        O  0.22068328  0.85903994  0.28096476    -0.61400
O583        O  0.18132967  0.91169268  0.28013980    -0.73900
O584        O  0.22066413  0.85841486  0.22248185    -0.72700
Cu585      Cu  0.23394732  0.92632070  0.25127670     1.04600
Cu586      Cu  0.19996054  0.88357520  0.25159951     1.04300
C587        C  0.24270931  0.86990974  0.21342320     0.93600
C588        C  0.19104320  0.94007938  0.28924720     0.92700
C589        C  0.24273102  0.87073228  0.28979694     0.84900
C590        C  0.19106733  0.93929937  0.21327707     0.91100
N591        N  0.28874316  0.82974588  0.33687311    -0.27000
N592        N  0.26608474  0.81671385  0.34568238    -0.34800
C593        C  0.24626278  0.82933553  0.33034256     0.01400
C594        C  0.25692207  0.85173781  0.31122805     0.07400
C595        C  0.28386236  0.85159131  0.31601749    -0.05700
H596        H  0.22563315  0.82265675  0.33292248     0.08100
H597        H  0.29889497  0.86528740  0.30453465     0.09300
Cu598      Cu  0.26298310  0.78197372  0.37786727     0.44200
Cu599      Cu  0.32535909  0.81398674  0.35154866     0.42000
Cu600      Cu  0.32341179  0.74283462  0.40086085     0.43900
N601        N  0.26460817  0.74608211  0.40936962    -0.34300
N602        N  0.28671119  0.73056639  0.41701699    -0.28600
C603        C  0.28123416  0.70796120  0.43718822    -0.04700
C604        C  0.25446050  0.70976543  0.44272880     0.07500
C605        C  0.24451469  0.73424057  0.42479874     0.01300
H606        H  0.29576768  0.69202646  0.44748346     0.09000
H607        H  0.22417379  0.74258742  0.42290892     0.08000
N608        N  0.35785288  0.76242071  0.38383506    -0.35800
N609        N  0.35870191  0.78853034  0.36622470    -0.28000
C610        C  0.38406500  0.79455359  0.35932741    -0.03200
C611        C  0.39970583  0.77116480  0.37332164     0.05400
C612        C  0.38259438  0.75122280  0.38865111     0.03500
H613        H  0.39055764  0.81430893  0.34507887     0.08600
H614        H  0.38768339  0.73008377  0.40226011     0.07400
N615        N  0.64214445  0.69367216  0.33759579    -0.27000
N616        N  0.66483272  0.70652118  0.34641550    -0.34800
C617        C  0.68463092  0.69389867  0.33098083     0.01400
C618        C  0.67392187  0.67168709  0.31179117     0.07400
C619        C  0.64697847  0.67194042  0.31663726    -0.05700
H620        H  0.70527260  0.70050024  0.33351352     0.08100
H621        H  0.63191235  0.65845656  0.30509312     0.09300
Cu622      Cu  0.66799192  0.74117356  0.37864245     0.44200
Cu623      Cu  0.60556716  0.70968876  0.35230214     0.42000
Cu624      Cu  0.60764537  0.78097689  0.40146664     0.43900
N625        N  0.66641117  0.77721971  0.41004408    -0.34300
N626        N  0.64435503  0.79296714  0.41762044    -0.28600
C627        C  0.64987571  0.81568291  0.43768686    -0.04700
C628        C  0.67662487  0.81371588  0.44323238     0.07500
C629        C  0.68651428  0.78902757  0.42541414     0.01300
H630        H  0.63539043  0.83185007  0.44788092     0.09000
H631        H  0.70683024  0.78054892  0.42353147     0.08000
N632        N  0.57317703  0.76165833  0.38441282    -0.35800
N633        N  0.57228901  0.73549072  0.36685630    -0.28000
C634        C  0.54693938  0.72969389  0.35987790    -0.03200
C635        C  0.53134245  0.75328986  0.37376054     0.05400
C636        C  0.54846784  0.77312128  0.38911402     0.03500
H637        H  0.54042842  0.70996089  0.34563643     0.08600
H638        H  0.54341248  0.79437274  0.40264853     0.07400
O639        O  0.71335301  0.82214969  0.47276397    -0.72600
O640        O  0.75286647  0.87622490  0.02989858    -0.73600
O641        O  0.71349258  0.82341825  0.03112584    -0.62200
O642        O  0.75277039  0.87495511  0.47234300    -0.70600
O643        O  0.72084200  0.91466560  0.47147268    -0.70200
O644        O  0.68163442  0.86322756  0.03021228    -0.61400
O645        O  0.72092248  0.91593009  0.02993682    -0.73900
O646        O  0.68152844  0.86202257  0.47285230    -0.72700
Cu647      Cu  0.73419822  0.84772356  0.00154644     1.04600
Cu648      Cu  0.70019299  0.89044830  0.00110166     1.04300
C649        C  0.69122976  0.83354117  0.46388282     0.93600
C650        C  0.74297937  0.90455050  0.03898151     0.92700
C651        C  0.69139375  0.83515710  0.03985283     0.84900
C652        C  0.74287816  0.90289435  0.46260438     0.91100
N653        N  0.28859617  0.82839902  0.16633426    -0.27000
N654        N  0.26595403  0.81494468  0.15795518    -0.34800
C655        C  0.24618379  0.82761360  0.17341116     0.01400
C656        C  0.25686307  0.85048437  0.19214846     0.07400
C657        C  0.28375889  0.85055009  0.18702022    -0.05700
H658        H  0.22556732  0.82074103  0.17110759     0.08100
H659        H  0.29879572  0.86470346  0.19810659     0.09300
Cu660      Cu  0.26285495  0.77989574  0.12597145     0.44200
Cu661      Cu  0.32515210  0.81303932  0.15116079     0.42000
Cu662      Cu  0.32350377  0.74203996  0.10173848     0.43900
N663        N  0.26456475  0.74437533  0.09419591    -0.34300
N664        N  0.28673524  0.72934680  0.08608949    -0.28600
C665        C  0.28128107  0.70704289  0.06572076    -0.04700
C666        C  0.25445254  0.70856009  0.06052506     0.07500
C667        C  0.24444925  0.73253161  0.07886553     0.01300
H668        H  0.29587106  0.69160583  0.05500496     0.09000
H669        H  0.22406719  0.74061224  0.08104288     0.08000
N670        N  0.35788558  0.76206296  0.11845255    -0.35800
N671        N  0.35860517  0.78811866  0.13611804    -0.28000
C672        C  0.38393490  0.79437006  0.14292412    -0.03200
C673        C  0.39969269  0.77118962  0.12881239     0.05400
C674        C  0.38268581  0.75112655  0.11350569     0.03500
H675        H  0.39031981  0.81406543  0.15725808     0.08600
H676        H  0.38787762  0.73000894  0.09989779     0.07400
N677        N  0.64456074  0.79565134  0.08682799    -0.27000
N678        N  0.66669488  0.78055296  0.09488329    -0.34800
C679        C  0.68682750  0.79221982  0.07942629     0.01400
C680        C  0.67686400  0.81613980  0.06105239     0.07400
C681        C  0.65004992  0.81781554  0.06636753    -0.05700
H682        H  0.70718386  0.78401657  0.08151110     0.08100
H683        H  0.63548349  0.83323315  0.05564949     0.09300
Cu684      Cu  0.66825877  0.74506507  0.12668221     0.44200
Cu685      Cu  0.60776424  0.78315614  0.10259033     0.42000
Cu686      Cu  0.60574800  0.71218870  0.15195167     0.43900
N687        N  0.66494682  0.70994383  0.15860357    -0.34300
N688        N  0.64225002  0.69658998  0.16700068    -0.28600
C689        C  0.64699730  0.67430185  0.18760197    -0.04700
C690        C  0.67388993  0.67417739  0.19265597     0.07500
C691        C  0.68465958  0.69707383  0.17396576     0.01300
H692        H  0.63190700  0.66016888  0.19867211     0.09000
H693        H  0.70530448  0.70380772  0.17161587     0.08000
N694        N  0.57240145  0.73726735  0.13692399    -0.35800
N695        N  0.57326676  0.76332136  0.11926787    -0.28000
C696        C  0.54851632  0.77431799  0.11423211    -0.03200
C697        C  0.53138406  0.75429909  0.12947256     0.05400
C698        C  0.54701848  0.73107605  0.14363796     0.03500
H699        H  0.54343909  0.79540568  0.10056959     0.08600
H700        H  0.54051007  0.71135156  0.15790500     0.07400
O701        O  0.74934724  0.61322243  0.22259086    -0.72600
O702        O  0.71010012  0.66467951  0.28130878    -0.73600
O703        O  0.74942707  0.61205186  0.27995268    -0.62200
O704        O  0.71004709  0.66592005  0.22284357    -0.70600
O705        O  0.67810963  0.62621237  0.22286985    -0.70200
O706        O  0.71761352  0.57217013  0.28003095    -0.61400
O707        O  0.67818286  0.62495985  0.28042640    -0.73900
O708        O  0.71749541  0.57341092  0.22166723    -0.72700
Cu709      Cu  0.73076884  0.64045567  0.25169041     1.04600
Cu710      Cu  0.69677320  0.59772456  0.25123403     1.04300
C711        C  0.73959616  0.58514651  0.21294920     0.93600
C712        C  0.68806523  0.65290217  0.29017041     0.92700
C713        C  0.73972757  0.58357558  0.28892471     0.84900
C714        C  0.68799599  0.65453573  0.21378958     0.91100
O715        O  0.17840024  0.64814644  0.03016366    -0.72600
O716        O  0.21778468  0.70157798  0.47247363    -0.73600
O717        O  0.17836491  0.64878228  0.47261517    -0.62200
O718        O  0.21778662  0.70093962  0.03082916    -0.70600
O719        O  0.24964373  0.66112157  0.03001491    -0.70200
O720        O  0.21027965  0.60904753  0.47182251    -0.61400
O721        O  0.24961824  0.66171895  0.47264394    -0.73900
O722        O  0.21032189  0.60841232  0.03030466    -0.72700
Cu723      Cu  0.19700987  0.67632237  0.00153131     1.04600
Cu724      Cu  0.23100701  0.63358473  0.00118350     1.04300
C725        C  0.18827800  0.61990402  0.03937503     0.93600
C726        C  0.23989511  0.69010807  0.46355191     0.92700
C727        C  0.18822386  0.62073116  0.46300360     0.84900
C728        C  0.23990408  0.68930211  0.03951568     0.91100
N729        N  0.14240159  0.57840093  0.08646429    -0.27000
N730        N  0.16504493  0.56494754  0.09484383    -0.34800
C731        C  0.18481394  0.57761125  0.07938660     0.01400
C732        C  0.17413162  0.60047726  0.06064930     0.07400
C733        C  0.14723653  0.60054557  0.06577868    -0.05700
H734        H  0.20543141  0.57073982  0.08169010     0.08100
H735        H  0.13219812  0.61469725  0.05469333     0.09300
Cu736      Cu  0.16814537  0.02990767  0.12683082     0.44200
Cu737      Cu  0.10584283  0.56305482  0.10162975     0.42000
Cu738      Cu  0.10748501  0.99209128  0.15105957     0.43900
N739        N  0.16642480  0.99438884  0.15860332    -0.34300
N740        N  0.14424989  0.97937527  0.16670652    -0.28600
C741        C  0.14969685  0.95706551  0.18707044    -0.04700
C742        C  0.17652542  0.95856308  0.19226733     0.07500
C743        C  0.18653614  0.98252957  0.17393228     0.01300
H744        H  0.13510193  0.94163898  0.19778300     0.09000
H745        H  0.20692078  0.99059646  0.17175792     0.08000
N746        N  0.07310398  0.01210557  0.13433713    -0.35800
N747        N  0.07238585  0.53814877  0.11666498    -0.28000
C748        C  0.04705736  0.54439220  0.10984735    -0.03200
C749        C  0.03129899  0.52121910  0.12395897     0.05400
C750        C  0.04830429  0.00116926  0.13927742     0.03500
H751        H  0.04067398  0.56407529  0.09550455     0.08600
H752        H  0.04311206  0.98005828  0.15288676     0.07400
N753        N  0.78644534  0.54560426  0.16599651    -0.27000
N754        N  0.76431045  0.53052292  0.15792678    -0.34800
C755        C  0.74417384  0.54220425  0.17337488     0.01400
C756        C  0.75413497  0.56611747  0.19175778     0.07400
C757        C  0.78095257  0.56777327  0.18645785    -0.05700
H758        H  0.72381565  0.53401865  0.17127562     0.08100
H759        H  0.79551774  0.58318310  0.19718461     0.09300
Cu760      Cu  0.76274789  0.49505033  0.12611237     0.44200
Cu761      Cu  0.82324211  0.53308890  0.15023715     0.42000
Cu762      Cu  0.82525028  0.96218748  0.10079533     0.43900
N763        N  0.76604857  0.95995056  0.09416974    -0.34300
N764        N  0.78874297  0.94660139  0.08575449    -0.28600
C765        C  0.78398807  0.92432096  0.06514711    -0.04700
C766        C  0.75709287  0.92419745  0.06010795     0.07500
C767        C  0.74632942  0.94708596  0.07881319     0.01300
H768        H  0.79907419  0.91018907  0.05406542     0.09000
H769        H  0.72568427  0.95381422  0.08117975     0.08000
N770        N  0.85859759  0.48724512  0.11583999    -0.35800
N771        N  0.85773499  0.51327009  0.13352727    -0.28000
C772        C  0.88248566  0.52426038  0.13856513    -0.03200
C773        C  0.89961519  0.50426829  0.12329376     0.05400
C774        C  0.88397900  0.48106717  0.10910771     0.03500
H775        H  0.88756471  0.54532794  0.15224830     0.08600
H776        H  0.89048485  0.96136782  0.09481373     0.07400
C777        C  0.00302883  0.51801967  0.12269341    -0.18200
C778        C  0.97933583  0.51475368  0.12209286     0.05900
C779        C  0.95159991  0.51068368  0.12192213     0.07700
C780        C  0.92789972  0.50742990  0.12225819    -0.19000
C781        C  0.50309824  0.75745192  0.13049753    -0.18200
C782        C  0.47939670  0.76069392  0.13082950     0.05900
C783        C  0.45165895  0.76474759  0.13065987     0.07700
C784        C  0.42796442  0.76800053  0.13006532    -0.19000
C785        C  0.42798559  0.76789009  0.37215954    -0.18200
C786        C  0.45168096  0.76453402  0.37175032     0.05900
C787        C  0.47941029  0.76030397  0.37186476     0.07700
C788        C  0.50309136  0.75683564  0.37245044    -0.19000
C789        C  0.92784062  0.50690852  0.38042385    -0.18200
C790        C  0.95152445  0.51034311  0.38100516     0.05900
C791        C  0.97925748  0.51452915  0.38111679     0.07700
C792        C  0.00295551  0.51785005  0.38070777    -0.19000
N793        N  0.14220303  0.57970126  0.91595551    -0.27000
N794        N  0.16486097  0.56666288  0.90714550    -0.34800
C795        C  0.18468549  0.57930293  0.92247235     0.01400
C796        C  0.17402835  0.60172449  0.94157986     0.07400
C797        C  0.14708608  0.60156903  0.93679978    -0.05700
H798        H  0.20531527  0.57262127  0.91988996     0.08100
H799        H  0.13205426  0.61527284  0.94828263     0.09300
Cu800      Cu  0.16795217  0.03189137  0.87497600     0.44200
Cu801      Cu  0.10559003  0.56391464  0.90129097     0.42000
Cu802      Cu  0.10752546  0.99269024  0.85201822     0.43900
N803        N  0.16632294  0.99599824  0.84347110    -0.34300
N804        N  0.14422578  0.98046086  0.83583474    -0.28600
C805        C  0.14970551  0.95787355  0.81564711    -0.04700
C806        C  0.17647370  0.95971340  0.81008534     0.07500
C807        C  0.18641375  0.98418833  0.82802039     0.01300
H808        H  0.13517675  0.94192736  0.80535509     0.09000
H809        H  0.20674936  0.99255860  0.82989781     0.08000
N810        N  0.07308899  0.01230577  0.86904443    -0.35800
N811        N  0.07224579  0.53844271  0.88663536    -0.28000
C812        C  0.04688413  0.54449242  0.89352714    -0.03200
C813        C  0.03123747  0.52109273  0.87955070     0.05400
C814        C  0.04834436  0.00111630  0.86423650     0.03500
H815        H  0.04039586  0.56427723  0.90775746     0.08600
H816        H  0.04324966  0.97996448  0.85063933     0.07400
N817        N  0.78878546  0.94371899  0.91520483    -0.27000
N818        N  0.76609377  0.95657092  0.90639551    -0.34800
C819        C  0.74629873  0.94392194  0.92181745     0.01400
C820        C  0.75701377  0.92168958  0.94098735     0.07400
C821        C  0.78395745  0.92195975  0.93614314    -0.05700
H822        H  0.72565551  0.95052444  0.91929303     0.08100
H823        H  0.79902794  0.90847318  0.94767924     0.09300
Cu824      Cu  0.76293271  0.49126476  0.87420028     0.44200
Cu825      Cu  0.82535793  0.95977518  0.90051896     0.42000
Cu826      Cu  0.82328516  0.53112984  0.85143308     0.43900
N827        N  0.76452522  0.52731495  0.84280679    -0.34300
N828        N  0.78657872  0.54308010  0.83525206    -0.28600
C829        C  0.78106409  0.56577560  0.81517317    -0.04700
C830        C  0.75432284  0.56377693  0.80959628     0.07500
C831        C  0.74443087  0.53909252  0.82741032     0.01300
H832        H  0.79554968  0.58194804  0.80499018     0.09000
H833        H  0.72411920  0.53059220  0.82926947     0.08000
N834        N  0.85775302  0.51179511  0.86847836    -0.35800
N835        N  0.85863824  0.48559890  0.88600444    -0.28000
C836        C  0.88398712  0.47978043  0.89297596    -0.03200
C837        C  0.89958705  0.50339242  0.87912102     0.05400
C838        C  0.88246377  0.52325584  0.86379034     0.03500
H839        H  0.89049620  0.96001671  0.90719003     0.08600
H840        H  0.88752224  0.54452125  0.85027518     0.07400
O841        O  0.25257832  0.89815278  0.72264484    -0.72600
O842        O  0.21315098  0.95156202  0.78033330    -0.73600
O843        O  0.25258641  0.89878514  0.78019379    -0.62200
O844        O  0.21317898  0.95093733  0.72197634    -0.71400
O845        O  0.18132847  0.91111609  0.72276637    -0.70200
O846        O  0.22068332  0.85903997  0.78096480    -0.61400
O847        O  0.18132961  0.91169259  0.78013989    -0.73900
O848        O  0.22066417  0.85841478  0.72248189    -0.72700
Cu849      Cu  0.23394730  0.92632063  0.75127671     1.04600
Cu850      Cu  0.19996053  0.88357514  0.75159957     1.04300
C851        C  0.24270928  0.86990975  0.71342315     0.93600
C852        C  0.19104315  0.94007932  0.78924723     0.92700
C853        C  0.24273105  0.87073233  0.78979697     0.84900
C854        C  0.19106733  0.93929944  0.71327711     0.91100
N855        N  0.28874315  0.82974579  0.83687303    -0.27000
N856        N  0.26608473  0.81671380  0.84568236    -0.34800
C857        C  0.24626276  0.82933561  0.83034259     0.01400
C858        C  0.25692207  0.85173792  0.81122810     0.07400
C859        C  0.28386235  0.85159137  0.81601750    -0.05700
H860        H  0.22563315  0.82265683  0.83292248     0.08100
H861        H  0.29889496  0.86528750  0.80453470     0.09300
Cu862      Cu  0.26298313  0.78197360  0.87786730     0.44200
Cu863      Cu  0.32535912  0.81398679  0.85154855     0.42000
Cu864      Cu  0.32341182  0.74283446  0.90086093     0.43900
N865        N  0.26460818  0.74608210  0.90936969    -0.34300
N866        N  0.28671119  0.73056633  0.91701706    -0.28600
C867        C  0.28123410  0.70796119  0.93718827    -0.04700
C868        C  0.25446046  0.70976539  0.94272882     0.07500
C869        C  0.24451468  0.73424054  0.92479876     0.01300
H870        H  0.29576775  0.69202627  0.94748366     0.09000
H871        H  0.22417376  0.74258738  0.92290888     0.08000
N872        N  0.35785288  0.76242070  0.88383517    -0.35800
N873        N  0.35870188  0.78853027  0.86622473    -0.28000
C874        C  0.38406494  0.79455349  0.85932746    -0.03200
C875        C  0.39970583  0.77116486  0.87332171     0.05400
C876        C  0.38259440  0.75122283  0.88865123     0.03500
H877        H  0.39055763  0.81430905  0.84507867     0.08600
H878        H  0.38768343  0.73008390  0.90226013     0.07400
N879        N  0.64214441  0.69367218  0.83759584    -0.27000
N880        N  0.66483268  0.70652120  0.84641551    -0.34800
C881        C  0.68463090  0.69389872  0.83098087     0.01400
C882        C  0.67392187  0.67168710  0.81179124     0.07400
C883        C  0.64697846  0.67194037  0.81663734    -0.05700
H884        H  0.70527258  0.70050033  0.83351359     0.08100
H885        H  0.63191242  0.65845651  0.80509327     0.09300
Cu886      Cu  0.66799195  0.74117349  0.87864241     0.44200
Cu887      Cu  0.60556706  0.70968881  0.85230218     0.42000
Cu888      Cu  0.60764539  0.78097697  0.90146671     0.43900
N889        N  0.66641121  0.77721972  0.91004409    -0.34300
N890        N  0.64435506  0.79296715  0.91762049    -0.28600
C891        C  0.64987572  0.81568288  0.93768694    -0.04700
C892        C  0.67662486  0.81371591  0.94323243     0.07500
C893        C  0.68651430  0.78902763  0.92541417     0.01300
H894        H  0.63539040  0.83185008  0.94788103     0.09000
H895        H  0.70683029  0.78054907  0.92353150     0.08000
N896        N  0.57317707  0.76165837  0.88441284    -0.35800
N897        N  0.57228900  0.73549077  0.86685634    -0.28000
C898        C  0.54693937  0.72969392  0.85987794    -0.03200
C899        C  0.53134247  0.75328988  0.87376060     0.05400
C900        C  0.54846788  0.77312136  0.88911406     0.03500
H901        H  0.54042840  0.70996094  0.84563650     0.08600
H902        H  0.54341259  0.79437269  0.90264848     0.07400
O903        O  0.71335301  0.82214980  0.97276389    -0.72600
O904        O  0.75286649  0.87622494  0.52989857    -0.73600
O905        O  0.71349265  0.82341830  0.53112594    -0.62200
O906        O  0.75277042  0.87495501  0.97234288    -0.70600
O907        O  0.72084202  0.91466550  0.97147266    -0.70200
O908        O  0.68163441  0.86322749  0.53021223    -0.61400
O909        O  0.72092249  0.91593012  0.52993687    -0.73900
O910        O  0.68152835  0.86202257  0.97285236    -0.72700
Cu911      Cu  0.73419822  0.84772360  0.50154650     1.04600
Cu912      Cu  0.70019300  0.89044835  0.50110168     1.04300
C913        C  0.69122973  0.83354123  0.96388282     0.93600
C914        C  0.74297940  0.90455054  0.53898151     0.92700
C915        C  0.69139378  0.83515709  0.53985285     0.84900
C916        C  0.74287817  0.90289428  0.96260433     0.91100
N917        N  0.28859620  0.82839893  0.66633434    -0.27000
N918        N  0.26595406  0.81494467  0.65795519    -0.34800
C919        C  0.24618381  0.82761362  0.67341114     0.01400
C920        C  0.25686306  0.85048438  0.69214844     0.07400
C921        C  0.28375891  0.85055007  0.68702028    -0.05700
H922        H  0.22556731  0.82074113  0.67110752     0.08100
H923        H  0.29879565  0.86470337  0.69810660     0.09300
Cu924      Cu  0.26285498  0.77989585  0.62597135     0.44200
Cu925      Cu  0.32515211  0.81303915  0.65116087     0.42000
Cu926      Cu  0.32350380  0.74203981  0.60173836     0.43900
N927        N  0.26456479  0.74437533  0.59419588    -0.34300
N928        N  0.28673527  0.72934683  0.58608942    -0.28600
C929        C  0.28128107  0.70704278  0.56572079    -0.04700
C930        C  0.25445252  0.70855995  0.56052514     0.07500
C931        C  0.24444926  0.73253151  0.57886560     0.01300
H932        H  0.29587100  0.69160574  0.55500503     0.09000
H933        H  0.22406719  0.74061220  0.58104294     0.08000
N934        N  0.35788557  0.76206288  0.61845249    -0.35800
N935        N  0.35860511  0.78811850  0.63611806    -0.28000
C936        C  0.38393481  0.79436996  0.64292415    -0.03200
C937        C  0.39969266  0.77118959  0.62881244     0.05400
C938        C  0.38268582  0.75112660  0.61350562     0.03500
H939        H  0.39031967  0.81406543  0.65725813     0.08600
H940        H  0.38787767  0.73000908  0.59989761     0.07400
N941        N  0.64456077  0.79565135  0.58682803    -0.27000
N942        N  0.66669492  0.78055296  0.59488333    -0.34800
C943        C  0.68682752  0.79221984  0.57942633     0.01400
C944        C  0.67686403  0.81613978  0.56105240     0.07400
C945        C  0.65004994  0.81781550  0.56636754    -0.05700
H946        H  0.70718396  0.78401662  0.58151116     0.08100
H947        H  0.63548350  0.83323306  0.55564945     0.09300
Cu948      Cu  0.66825880  0.74506514  0.62668228     0.44200
Cu949      Cu  0.60776425  0.78315597  0.60259023     0.42000
Cu950      Cu  0.60574804  0.71218877  0.65195157     0.43900
N951        N  0.66494684  0.70994372  0.65860353    -0.34300
N952        N  0.64225002  0.69659003  0.66700070    -0.28600
C953        C  0.64699727  0.67430190  0.68760200    -0.04700
C954        C  0.67388992  0.67417727  0.69265592     0.07500
C955        C  0.68465958  0.69707368  0.67396573     0.01300
H956        H  0.63190692  0.66016902  0.69867219     0.09000
H957        H  0.70530450  0.70380760  0.67161591     0.08000
N958        N  0.57240142  0.73726732  0.63692403    -0.35800
N959        N  0.57326675  0.76332137  0.61926794    -0.28000
C960        C  0.54851632  0.77431802  0.61423220    -0.03200
C961        C  0.53138403  0.75429910  0.62947262     0.05400
C962        C  0.54701845  0.73107607  0.64363801     0.03500
H963        H  0.54343911  0.79540573  0.60056970     0.08600
H964        H  0.54051001  0.71135150  0.65790517     0.07400
O965        O  0.74934727  0.61322254  0.72259084    -0.72600
O966        O  0.71010010  0.66467952  0.78130882    -0.73600
O967        O  0.74942697  0.61205186  0.77995276    -0.62200
O968        O  0.71004713  0.66591997  0.72284346    -0.70600
O969        O  0.67810961  0.62621237  0.72286986    -0.70200
O970        O  0.71761350  0.57217003  0.78003090    -0.61400
O971        O  0.67818281  0.62495992  0.78042638    -0.73900
O972        O  0.71749546  0.57341100  0.72166725    -0.72700
Cu973      Cu  0.73076885  0.64045572  0.75169043     1.04600
Cu974      Cu  0.69677320  0.59772461  0.75123400     1.04300
C975        C  0.73959621  0.58514659  0.71294921     0.93600
C976        C  0.68806520  0.65290220  0.79017044     0.92700
C977        C  0.73972751  0.58357550  0.78892470     0.84900
C978        C  0.68799600  0.65453565  0.71378952     0.91100
O979        O  0.17840024  0.64814654  0.53016370    -0.72600
O980        O  0.21778467  0.70157806  0.97247373    -0.73600
O981        O  0.17836496  0.64878225  0.97261511    -0.62200
O982        O  0.21778668  0.70093970  0.53082906    -0.70600
O983        O  0.24964370  0.66112147  0.53001499    -0.70200
O984        O  0.21027965  0.60904746  0.97182245    -0.61400
O985        O  0.24961817  0.66171898  0.97264395    -0.73900
O986        O  0.21032187  0.60841236  0.53030473    -0.72700
Cu987      Cu  0.19700988  0.67632242  0.50153126     1.04600
Cu988      Cu  0.23100703  0.63358467  0.50118356     1.04300
C989        C  0.18827798  0.61990411  0.53937509     0.93600
C990        C  0.23989506  0.69010810  0.96355195     0.92700
C991        C  0.18822385  0.62073109  0.96300357     0.84900
C992        C  0.23990407  0.68930206  0.53951570     0.91100
N993        N  0.14240162  0.57840077  0.58646429    -0.27000
N994        N  0.16504498  0.56494738  0.59484378    -0.34800
C995        C  0.18481397  0.57761128  0.57938663     0.01400
C996        C  0.17413162  0.60047734  0.56064938     0.07400
C997        C  0.14723652  0.60054549  0.56577875    -0.05700
H998        H  0.20543145  0.57073992  0.58169013     0.08100
H999        H  0.13219803  0.61469720  0.55469340     0.09300
Cu1000     Cu  0.16814539  0.02990750  0.62683068     0.44200
Cu1001     Cu  0.10584287  0.56305467  0.60162981     0.42000
Cu1002     Cu  0.10748502  0.99209137  0.65105963     0.43900
N1003       N  0.16642481  0.99438886  0.65860326    -0.34300
N1004       N  0.14424991  0.97937538  0.66670655    -0.28600
C1005       C  0.14969689  0.95706564  0.68707047    -0.04700
C1006       C  0.17652547  0.95856313  0.69226730     0.07500
C1007       C  0.18653621  0.98252961  0.67393219     0.01300
H1008       H  0.13510197  0.94163917  0.69778308     0.09000
H1009       H  0.20692064  0.99059644  0.67175778     0.08000
N1010       N  0.07310399  0.01210564  0.63433707    -0.35800
N1011       N  0.07238582  0.53814887  0.61666497    -0.28000
C1012       C  0.04705732  0.54439229  0.60984728    -0.03200
C1013       C  0.03129898  0.52121912  0.62395890     0.05400
C1014       C  0.04830431  0.00116930  0.63927731     0.03500
H1015       H  0.04067398  0.56407517  0.59550458     0.08600
H1016       H  0.04311208  0.98005833  0.65288663     0.07400
N1017       N  0.78644535  0.54560437  0.66599640    -0.27000
N1018       N  0.76431045  0.53052302  0.65792672    -0.34800
C1019       C  0.74417387  0.54220432  0.67337488     0.01400
C1020       C  0.75413502  0.56611752  0.69175778     0.07400
C1021       C  0.78095260  0.56777334  0.68645776    -0.05700
H1022       H  0.72381567  0.53401870  0.67127569     0.08100
H1023       H  0.79551785  0.58318320  0.69718454     0.09300
Cu1024     Cu  0.76274792  0.49505018  0.62611246     0.44200
Cu1025     Cu  0.82324211  0.53308877  0.65023705     0.42000
Cu1026     Cu  0.82525029  0.96218755  0.60079540     0.43900
N1027       N  0.76604859  0.95995044  0.59416984    -0.34300
N1028       N  0.78874300  0.94660128  0.58575459    -0.28600
C1029       C  0.78398810  0.92432098  0.56514714    -0.04700
C1030       C  0.75709293  0.92419752  0.56010792     0.07500
C1031       C  0.74632945  0.94708596  0.57881321     0.01300
H1032       H  0.79907430  0.91018899  0.55406539     0.09000
H1033       H  0.72568434  0.95381420  0.58117980     0.08000
N1034       N  0.85859759  0.48724512  0.61584001    -0.35800
N1035       N  0.85773503  0.51327014  0.63352727    -0.28000
C1036       C  0.88248570  0.52426048  0.63856507    -0.03200
C1037       C  0.89961519  0.50426831  0.62329374     0.05400
C1038       C  0.88397897  0.48106717  0.60910775     0.03500
H1039       H  0.88756479  0.54532809  0.65224816     0.08600
H1040       H  0.89048484  0.96136776  0.59481374     0.07400
C1041       C  0.00302882  0.51801959  0.62269328    -0.18200
C1042       C  0.97933582  0.51475366  0.62209272     0.05900
C1043       C  0.95159990  0.51068361  0.62192204     0.07700
C1044       C  0.92789972  0.50742987  0.62225818    -0.19000
C1045       C  0.50309822  0.75745198  0.63049756    -0.18200
C1046       C  0.47939668  0.76069400  0.63082945     0.05900
C1047       C  0.45165894  0.76474769  0.63065990     0.07700
C1048       C  0.42796439  0.76800060  0.63006539    -0.19000
C1049       C  0.42798561  0.76789018  0.87215956    -0.18200
C1050       C  0.45168099  0.76453412  0.87175026     0.05900
C1051       C  0.47941031  0.76030400  0.87186479     0.07700
C1052       C  0.50309137  0.75683559  0.87245053    -0.19000
C1053       C  0.92784056  0.50690861  0.88042381    -0.18200
C1054       C  0.95152438  0.51034321  0.88100516     0.05900
C1055       C  0.97925741  0.51452923  0.88111673     0.07700
C1056       C  0.00295545  0.51785008  0.88070775    -0.19000
loop_ 
_geom_bond_atom_site_label_1 
_geom_bond_atom_site_label_2 
_geom_bond_distance 
_geom_bond_site_symmetry_2 
_ccdc_geom_bond_type 
N1            N2   1.323       .  A
N1            C5   1.346       .  A
N1           Cu9   2.078       .  S
N2            C3   1.345       .  A
N2         Cu536   2.073       .  S
C3            C4   1.381       .  A
C3            H6   1.082       .  S
C4            C5   1.383       .  A
C4          C199   1.468       .  S
C5            H7   1.082       .  S
Cu8          N11   2.072       .  S
Cu8         N530   2.073       .  S
Cu9          N19   2.079       .  S
Cu10         N12   2.072       .  S
Cu10         N18   2.072       .  S
N11          N12   1.322       .  A
N11          C15   1.346       .  A
N12          C13   1.345       .  A
C13          C14   1.383       .  A
C13          H16   1.082       .  S
C14          C15   1.382       .  A
C14          C60   1.468       .  S
C15          H17   1.082       .  S
N18         N547   1.324       .  A
N18          C22   1.345       .  A
N19         N546   1.324       .  A
N19          C20   1.346       .  A
C20          C21   1.380       .  A
C20          H23   1.082       .  S
C21         C550   1.378       .  A
C21         C264   1.437       .  S
C22         C549   1.378       .  A
C22          H24   1.082       .  S
N25          N26   1.323       .  A
N25          C29   1.346       .  A
N25         Cu33   2.078       .  S
N26          C27   1.345       .  A
N26        Cu560   2.073       .  S
C27          C28   1.381       .  A
C27          H30   1.082       .  S
C28          C29   1.383       .  A
C28         C124   1.468       .  S
C29          H31   1.082       .  S
Cu32         N35   2.072   1_565  S
Cu32        N554   2.073       .  S
Cu33        N571   2.079       .  S
Cu34         N36   2.072       .  S
Cu34         N42   2.072       .  S
N35          N36   1.322       .  A
N35          C39   1.346       .  A
N36          C37   1.345       .  A
C37          C38   1.383       .  A
C37          H40   1.082       .  S
C38          C39   1.382       .  A
C38         C185   1.468       .  S
C39          H41   1.082       .  S
N42          N43   1.324   1_545  A
N42          C46   1.345       .  A
N43          C44   1.346       .  A
N43        Cu561   2.079       .  S
C44          C45   1.380   1_565  A
C44         H575   1.082       .  S
C45          C46   1.378       .  A
C45         C261   1.437       .  S
C46          H48   1.082       .  S
H47         C572   1.082       .  S
O49         Cu57   2.007       .  S
O49          C59   1.277       .  A
O50         Cu57   2.018       .  S
O50          C60   1.279       .  A
O51         Cu57   2.006       .  S
O51          C61   1.276       .  A
O52         Cu57   2.017       .  S
O52          C62   1.278       .  A
O53         Cu58   2.003       .  S
O53          C62   1.276       .  A
O54         Cu58   2.017       .  S
O54          C61   1.279       .  A
O55         Cu58   2.002       .  S
O55          C60   1.276       .  A
O56         Cu58   2.016       .  S
O56          C59   1.278       .  A
Cu57        Cu58   2.377       .  S
C59         C128   1.468       .  S
C61          C66   1.468       .  S
C62         C214   1.467       .  S
N63          N64   1.323       .  A
N63          C67   1.346       .  A
N63         Cu71   2.078       .  S
N64          C65   1.345       .  A
N64         Cu70   2.073       .  S
C65          C66   1.381       .  A
C65          H68   1.082       .  S
C66          C67   1.383       .  A
C67          H69   1.082       .  S
Cu70         N73   2.072       .  S
Cu71         N81   2.079       .  S
Cu72         N74   2.072       .  S
Cu72         N80   2.072       .  S
N73          N74   1.322       .  A
N73          C77   1.346       .  A
N74          C75   1.345       .  A
C75          C76   1.383       .  A
C75          H78   1.082       .  S
C76          C77   1.382       .  A
C76         C198   1.468       .  S
C77          H79   1.082       .  S
N80          N81   1.324       .  A
N80          C84   1.345       .  A
N81          C82   1.346       .  A
C82          C83   1.380       .  A
C82          H85   1.082       .  S
C83          C84   1.378       .  A
C83         C257   1.437       .  S
C84          H86   1.082       .  S
N87          N88   1.323       .  A
N87          C91   1.346       .  A
N87         Cu95   2.078       .  S
N88          C89   1.345       .  A
N88         Cu94   2.072       .  S
C89          C90   1.381       .  A
C89          H92   1.082       .  S
C90          C91   1.383       .  A
C90         C184   1.468       .  S
C91          H93   1.082       .  S
Cu94         N97   2.072       .  S
Cu95        N105   2.079       .  S
Cu96         N98   2.072       .  S
Cu96        N104   2.072       .  S
N97          N98   1.322       .  A
N97         C101   1.346       .  A
N98          C99   1.345       .  A
C99         C100   1.383       .  A
C99         H102   1.082       .  S
C100        C101   1.382       .  A
C100        C121   1.468       .  S
C101        H103   1.082       .  S
N104        N105   1.324       .  A
N104        C108   1.345       .  A
N105        C106   1.346       .  A
C106        C107   1.380       .  A
C106        H109   1.082       .  S
C107        C108   1.378       .  A
C107        C260   1.437       .  S
C108        H110   1.082       .  S
O111       Cu383   2.019       .  S
O111        C121   1.279       .  A
O112       Cu119   2.007       .  S
O112        C122   1.277       .  A
O113       Cu119   2.017       .  S
O113        C123   1.279       .  A
O114       Cu383   2.006       .  S
O114        C124   1.277       .  A
O115       Cu384   2.016       .  S
O115        C124   1.279       .  A
O116       Cu120   2.002       .  S
O116        C123   1.276       .  A
O117       Cu120   2.016       .  S
O117        C122   1.278       .  A
O118       Cu384   2.002       .  S
O118        C121   1.276       .  A
Cu119       O375   2.019   1_554  S
Cu119       O378   2.006   1_554  S
Cu119      Cu120   2.377       .  S
Cu120       O379   2.016   1_554  S
Cu120       O382   2.002   1_554  S
C122        C238   1.468       .  S
C123        C152   1.467       .  S
N125        N126   1.323       .  A
N125        C129   1.346       .  A
N125       Cu133   2.078       .  S
N126        C127   1.345       .  A
N126       Cu132   2.073       .  S
C127        C128   1.382       .  A
C127        H130   1.082       .  S
C128        C129   1.383       .  A
C129        H131   1.082       .  S
Cu132       N135   2.073       .  S
Cu133       N143   2.078       .  S
Cu134       N136   2.072       .  S
Cu134       N142   2.072       .  S
N135        N136   1.322       .  A
N135        C139   1.345       .  A
N136        C137   1.345       .  A
C137        C138   1.383       .  A
C137        H140   1.082       .  S
C138        C139   1.382       .  A
C138        C200   1.467       .  S
C139        H141   1.082       .  S
N142        N143   1.324       .  A
N142        C146   1.345       .  A
N143        C144   1.346       .  A
C144        C145   1.380       .  A
C144        H147   1.082       .  S
C145        C146   1.378       .  A
C145        C256   1.437       .  S
C146        H148   1.082       .  S
N149        N150   1.322       .  A
N149        C153   1.345       .  A
N149       Cu157   2.071       .  S
N150        C151   1.346       .  A
N150       Cu156   2.073       .  S
C151        C152   1.382       .  A
C151        H154   1.082       .  S
C152        C153   1.382       .  A
C153        H155   1.082       .  S
Cu156       N159   2.073       .  S
Cu157       N167   2.071       .  S
Cu158       N160   2.078       .  S
Cu158       N166   2.078       .  S
N159        N160   1.323       .  A
N159        C163   1.345       .  A
N160        C161   1.346       .  A
C161        C162   1.383       .  A
C161        H164   1.082       .  S
C162        C163   1.382       .  A
C162        C186   1.468       .  S
C163        H165   1.082       .  S
N166        N167   1.324       .  A
N166        C170   1.346       .  A
N167        C168   1.345       .  A
C168        C169   1.378       .  A
C168        H171   1.082       .  S
C169        C170   1.380       .  A
C169        C253   1.437       .  S
C170        H172   1.082       .  S
O173       Cu181   2.002       .  S
O173        C183   1.276       .  A
O174       Cu181   2.016       .  S
O174        C184   1.279       .  A
O175       Cu181   2.002       .  S
O175        C185   1.276       .  A
O176       Cu181   2.015       .  S
O176        C186   1.278       .  A
O177       Cu182   2.007       .  S
O177        C186   1.277       .  A
O178       Cu182   2.019       .  S
O178        C185   1.279       .  A
O179       Cu182   2.006       .  S
O179        C184   1.277       .  A
O180       Cu182   2.017       .  S
O180        C183   1.278       .  A
Cu181      Cu182   2.377       .  S
C183        C228   1.467       .  S
O187       Cu195   2.006       .  S
O187        C197   1.277       .  A
O188       Cu459   2.018       .  S
O188        C198   1.279       .  A
O189       Cu459   2.006       .  S
O189        C199   1.276       .  A
O190       Cu195   2.017       .  S
O190        C200   1.278       .  A
O191       Cu196   2.003       .  S
O191        C200   1.276       .  A
O192       Cu460   2.017       .  S
O192        C199   1.279       .  A
O193       Cu460   2.002       .  S
O193        C198   1.276       .  A
O194       Cu196   2.016       .  S
O194        C197   1.279       .  A
Cu195       O452   2.018   1_554  S
Cu195       O453   2.006   1_554  S
Cu195      Cu196   2.377       .  S
Cu196       O456   2.017   1_554  S
Cu196       O457   2.002   1_554  S
C197        C204   1.468       .  S
N201        N202   1.323       .  A
N201        C205   1.346       .  A
N201       Cu209   2.078       .  S
N202        C203   1.345       .  A
N202       Cu736   2.073       .  S
C203        C204   1.382       .  A
C203        H206   1.082       .  S
C204        C205   1.383       .  A
C205        H207   1.082       .  S
Cu208       N211   2.073       .  S
Cu208       N730   2.073       .  S
Cu209       N219   2.078       .  S
Cu210       N212   2.072       .  S
Cu210       N218   2.072       .  S
N211        N212   1.322       .  A
N211        C215   1.346       .  A
N212        C213   1.345       .  A
C213        C214   1.383       .  A
C213        H216   1.082       .  S
C214        C215   1.382       .  A
C215        H217   1.082       .  S
N218        N747   1.324       .  A
N218        C222   1.345       .  A
N219        N746   1.324       .  A
N219        C220   1.346       .  A
C220        C221   1.380       .  A
C220        H223   1.082       .  S
C221        C750   1.378       .  A
C221        C249   1.437       .  S
C222        C749   1.378       .  A
C222        H224   1.082       .  S
N225        N226   1.322       .  A
N225        C229   1.345       .  A
N225       Cu233   2.071       .  S
N226        C227   1.346       .  A
N226       Cu232   2.073   1_545  S
C227        C228   1.382       .  A
C227        H230   1.082       .  S
C228        C229   1.382       .  A
C229        H231   1.082       .  S
Cu232       N763   2.073       .  S
Cu233       N243   2.071       .  S
Cu234       N236   2.078       .  S
Cu234       N770   2.078       .  S
N235        N236   1.323       .  A
N235        C239   1.345       .  A
N235       Cu760   2.073       .  S
N236        C237   1.346       .  A
C237        C238   1.383       .  A
C237        H240   1.082       .  S
C238        C239   1.382       .  A
C239        H241   1.082       .  S
N242        N243   1.324   1_565  A
N242        C246   1.346       .  A
N242       Cu762   2.078       .  S
N243        C244   1.345       .  A
C244        C245   1.378       .  A
C244        H247   1.082       .  S
C245        C246   1.380   1_545  A
C245        C252   1.437       .  S
C246        H776   1.082       .  S
H248        C774   1.082       .  S
C249        C250   1.206   1_455  T
C250        C251   1.412       .  S
C251        C252   1.206       .  T
C253        C254   1.206       .  T
C254        C255   1.412       .  S
C255        C256   1.206       .  T
C257        C258   1.206       .  T
C258        C259   1.412       .  S
C259        C260   1.206       .  T
C261        C262   1.206       .  T
C262        C263   1.412       .  S
C263        C264   1.206   1_655  T
N265        N266   1.323       .  A
N265        C269   1.346       .  A
N265       Cu273   2.078       .  S
N266        C267   1.345       .  A
N266       Cu800   2.073       .  S
C267        C268   1.381       .  A
C267        H270   1.082       .  S
C268        C269   1.383       .  A
C268        C463   1.468       .  S
C269        H271   1.082       .  S
Cu272       N794   2.073       .  S
Cu272       N275   2.072       .  S
Cu273       N283   2.079       .  S
Cu274       N276   2.072       .  S
Cu274       N282   2.072       .  S
N275        N276   1.322       .  A
N275        C279   1.346       .  A
N276        C277   1.345       .  A
C277        C278   1.383       .  A
C277        H280   1.082       .  S
C278        C279   1.382       .  A
C278        C324   1.468       .  S
C279        H281   1.082       .  S
N282        N811   1.324       .  A
N282        C286   1.345       .  A
N283        N810   1.324       .  A
N283        C284   1.346       .  A
C284        C285   1.380       .  A
C284        H287   1.082       .  S
C285        C814   1.378       .  A
C285        C528   1.437       .  S
C286        C813   1.378       .  A
C286        H288   1.082       .  S
N289        N290   1.323       .  A
N289        C293   1.346       .  A
N289       Cu297   2.078       .  S
N290        C291   1.345       .  A
N290       Cu824   2.073       .  S
C291        C292   1.381       .  A
C291        H294   1.082       .  S
C292        C293   1.383       .  A
C292        C388   1.468       .  S
C293        H295   1.082       .  S
Cu296       N818   2.073       .  S
Cu296       N299   2.072   1_565  S
Cu297       N835   2.079       .  S
Cu298       N300   2.072       .  S
Cu298       N306   2.072       .  S
N299        N300   1.322       .  A
N299        C303   1.346       .  A
N300        C301   1.345       .  A
C301        C302   1.383       .  A
C301        H304   1.082       .  S
C302        C303   1.382       .  A
C302        C449   1.468       .  S
C303        H305   1.082       .  S
N306        N307   1.324   1_545  A
N306        C310   1.345       .  A
N307        C308   1.346       .  A
N307       Cu825   2.079       .  S
C308        C309   1.380   1_565  A
C308        H839   1.082       .  S
C309        C310   1.378       .  A
C309        C525   1.437       .  S
C310        H312   1.082       .  S
H311        C836   1.082       .  S
O313       Cu321   2.007       .  S
O313        C323   1.277       .  A
O314       Cu321   2.018       .  S
O314        C324   1.279       .  A
O315       Cu321   2.006       .  S
O315        C325   1.276       .  A
O316       Cu321   2.017       .  S
O316        C326   1.278       .  A
O317       Cu322   2.003       .  S
O317        C326   1.276       .  A
O318       Cu322   2.017       .  S
O318        C325   1.279       .  A
O319       Cu322   2.002       .  S
O319        C324   1.276       .  A
O320       Cu322   2.016       .  S
O320        C323   1.278       .  A
Cu321      Cu322   2.377       .  S
C323        C392   1.468       .  S
C325        C330   1.468       .  S
C326        C478   1.467       .  S
N327        N328   1.323       .  A
N327        C331   1.346       .  A
N327       Cu335   2.078       .  S
N328        C329   1.345       .  A
N328       Cu334   2.073       .  S
C329        C330   1.381       .  A
C329        H332   1.082       .  S
C330        C331   1.383       .  A
C331        H333   1.082       .  S
Cu334       N337   2.072       .  S
Cu335       N345   2.079       .  S
Cu336       N338   2.072       .  S
Cu336       N344   2.072       .  S
N337        N338   1.322       .  A
N337        C341   1.346       .  A
N338        C339   1.345       .  A
C339        C340   1.383       .  A
C339        H342   1.082       .  S
C340        C341   1.382       .  A
C340        C462   1.468       .  S
C341        H343   1.082       .  S
N344        N345   1.324       .  A
N344        C348   1.345       .  A
N345        C346   1.346       .  A
C346        C347   1.380       .  A
C346        H349   1.082       .  S
C347        C348   1.378       .  A
C347        C521   1.437       .  S
C348        H350   1.082       .  S
N351        N352   1.323       .  A
N351        C355   1.346       .  A
N351       Cu359   2.078       .  S
N352        C353   1.345       .  A
N352       Cu358   2.072       .  S
C353        C354   1.381       .  A
C353        H356   1.082       .  S
C354        C355   1.383       .  A
C354        C448   1.468       .  S
C355        H357   1.082       .  S
Cu358       N361   2.072       .  S
Cu359       N369   2.079       .  S
Cu360       N362   2.072       .  S
Cu360       N368   2.072       .  S
N361        N362   1.322       .  A
N361        C365   1.346       .  A
N362        C363   1.345       .  A
C363        C364   1.383       .  A
C363        H366   1.082       .  S
C364        C365   1.382       .  A
C364        C385   1.468       .  S
C365        H367   1.082       .  S
N368        N369   1.324       .  A
N368        C372   1.345       .  A
N369        C370   1.346       .  A
C370        C371   1.380       .  A
C370        H373   1.082       .  S
C371        C372   1.378       .  A
C371        C524   1.437       .  S
C372        H374   1.082       .  S
O375        C385   1.279       .  A
O376       Cu383   2.007       .  S
O376        C386   1.277       .  A
O377       Cu383   2.017       .  S
O377        C387   1.279       .  A
O378        C388   1.277       .  A
O379        C388   1.279       .  A
O380       Cu384   2.002       .  S
O380        C387   1.276       .  A
O381       Cu384   2.016       .  S
O381        C386   1.278       .  A
O382        C385   1.276       .  A
Cu383      Cu384   2.377       .  S
C386        C502   1.468       .  S
C387        C416   1.467       .  S
N389        N390   1.323       .  A
N389        C393   1.346       .  A
N389       Cu397   2.078       .  S
N390        C391   1.345       .  A
N390       Cu396   2.073       .  S
C391        C392   1.382       .  A
C391        H394   1.082       .  S
C392        C393   1.383       .  A
C393        H395   1.082       .  S
Cu396       N399   2.073       .  S
Cu397       N407   2.078       .  S
Cu398       N400   2.072       .  S
Cu398       N406   2.072       .  S
N399        N400   1.322       .  A
N399        C403   1.345       .  A
N400        C401   1.345       .  A
C401        C402   1.383       .  A
C401        H404   1.082       .  S
C402        C403   1.382       .  A
C402        C464   1.467       .  S
C403        H405   1.082       .  S
N406        N407   1.324       .  A
N406        C410   1.345       .  A
N407        C408   1.346       .  A
C408        C409   1.380       .  A
C408        H411   1.082       .  S
C409        C410   1.378       .  A
C409        C520   1.437       .  S
C410        H412   1.082       .  S
N413        N414   1.322       .  A
N413        C417   1.345       .  A
N413       Cu421   2.071       .  S
N414        C415   1.346       .  A
N414       Cu420   2.073       .  S
C415        C416   1.382       .  A
C415        H418   1.082       .  S
C416        C417   1.382       .  A
C417        H419   1.082       .  S
Cu420       N423   2.073       .  S
Cu421       N431   2.071       .  S
Cu422       N424   2.078       .  S
Cu422       N430   2.078       .  S
N423        N424   1.323       .  A
N423        C427   1.345       .  A
N424        C425   1.346       .  A
C425        C426   1.383       .  A
C425        H428   1.082       .  S
C426        C427   1.382       .  A
C426        C450   1.468       .  S
C427        H429   1.082       .  S
N430        N431   1.324       .  A
N430        C434   1.346       .  A
N431        C432   1.345       .  A
C432        C433   1.378       .  A
C432        H435   1.082       .  S
C433        C434   1.380       .  A
C433        C517   1.437       .  S
C434        H436   1.082       .  S
O437       Cu445   2.002       .  S
O437        C447   1.276       .  A
O438       Cu445   2.016       .  S
O438        C448   1.279       .  A
O439       Cu445   2.002       .  S
O439        C449   1.276       .  A
O440       Cu445   2.015       .  S
O440        C450   1.278       .  A
O441       Cu446   2.007       .  S
O441        C450   1.277       .  A
O442       Cu446   2.019       .  S
O442        C449   1.279       .  A
O443       Cu446   2.006       .  S
O443        C448   1.277       .  A
O444       Cu446   2.017       .  S
O444        C447   1.278       .  A
Cu445      Cu446   2.377       .  S
C447        C492   1.467       .  S
O451       Cu459   2.006       .  S
O451        C461   1.277       .  A
O452        C462   1.279       .  A
O453        C463   1.276       .  A
O454       Cu459   2.017       .  S
O454        C464   1.278       .  A
O455       Cu460   2.003       .  S
O455        C464   1.276       .  A
O456        C463   1.279       .  A
O457        C462   1.276       .  A
O458       Cu460   2.016       .  S
O458        C461   1.279       .  A
Cu459      Cu460   2.377       .  S
C461        C468   1.468       .  S
N465        N466   1.323       .  A
N465        C469   1.346       .  A
N465       Cu473   2.078       .  S
N466        C467   1.345       .  A
N466      Cu1000   2.073       .  S
C467        C468   1.382       .  A
C467        H470   1.082       .  S
C468        C469   1.383       .  A
C469        H471   1.082       .  S
Cu472       N994   2.073       .  S
Cu472       N475   2.073       .  S
Cu473       N483   2.078       .  S
Cu474       N476   2.072       .  S
Cu474       N482   2.072       .  S
N475        N476   1.322       .  A
N475        C479   1.346       .  A
N476        C477   1.345       .  A
C477        C478   1.383       .  A
C477        H480   1.082       .  S
C478        C479   1.382       .  A
C479        H481   1.082       .  S
N482       N1011   1.324       .  A
N482        C486   1.345       .  A
N483       N1010   1.324       .  A
N483        C484   1.346       .  A
C484        C485   1.380       .  A
C484        H487   1.082       .  S
C485       C1014   1.378       .  A
C485        C513   1.437       .  S
C486       C1013   1.378       .  A
C486        H488   1.082       .  S
N489        N490   1.322       .  A
N489        C493   1.345       .  A
N489       Cu497   2.071       .  S
N490        C491   1.346       .  A
N490       Cu496   2.073   1_545  S
C491        C492   1.382       .  A
C491        H494   1.082       .  S
C492        C493   1.382       .  A
C493        H495   1.082       .  S
Cu496      N1027   2.073       .  S
Cu497       N507   2.071       .  S
Cu498       N500   2.078       .  S
Cu498      N1034   2.078       .  S
N499        N500   1.323       .  A
N499        C503   1.345       .  A
N499      Cu1024   2.073       .  S
N500        C501   1.346       .  A
C501        C502   1.383       .  A
C501        H504   1.082       .  S
C502        C503   1.382       .  A
C503        H505   1.082       .  S
N506        N507   1.324   1_565  A
N506        C510   1.346       .  A
N506      Cu1026   2.078       .  S
N507        C508   1.345       .  A
C508        C509   1.378       .  A
C508        H511   1.082       .  S
C509        C510   1.380   1_545  A
C509        C516   1.437       .  S
C510       H1040   1.082       .  S
H512       C1038   1.082       .  S
C513        C514   1.206   1_455  T
C514        C515   1.412       .  S
C515        C516   1.206       .  T
C517        C518   1.206       .  T
C518        C519   1.412       .  S
C519        C520   1.206       .  T
C521        C522   1.206       .  T
C522        C523   1.412       .  S
C523        C524   1.206       .  T
C525        C526   1.206       .  T
C526        C527   1.412       .  S
C527        C528   1.206   1_655  T
N529        N530   1.323       .  A
N529        C533   1.346       .  A
N529       Cu537   2.078       .  S
N530        C531   1.345       .  A
C531        C532   1.381       .  A
C531        H534   1.082       .  S
C532        C533   1.383       .  A
C532        C727   1.468       .  S
C533        H535   1.082       .  S
Cu536       N539   2.072   1_545  S
Cu537       N547   2.079       .  S
Cu538       N540   2.072       .  S
Cu538       N546   2.072   1_565  S
N539        N540   1.322       .  A
N539        C543   1.346       .  A
N540        C541   1.345       .  A
C541        C542   1.383       .  A
C541        H544   1.082       .  S
C542        C543   1.382       .  A
C542        C588   1.468       .  S
C543        H545   1.082       .  S
N546        C550   1.345       .  A
N547        C548   1.346       .  A
C548        C549   1.380       .  A
C548        H551   1.082       .  S
C549        C792   1.437       .  S
C550        H552   1.082   1_545  S
N553        N554   1.323       .  A
N553        C557   1.346       .  A
N553       Cu561   2.078       .  S
N554        C555   1.345       .  A
C555        C556   1.381       .  A
C555        H558   1.082       .  S
C556        C557   1.383       .  A
C556        C652   1.468       .  S
C557        H559   1.082       .  S
Cu560       N563   2.072       .  S
Cu562       N564   2.072       .  S
Cu562       N570   2.072       .  S
N563        N564   1.322       .  A
N563        C567   1.346       .  A
N564        C565   1.345       .  A
C565        C566   1.383       .  A
C565        H568   1.082       .  S
C566        C567   1.382       .  A
C566        C713   1.468       .  S
C567        H569   1.082       .  S
N570        N571   1.324       .  A
N570        C574   1.345       .  A
N571        C572   1.346       .  A
C572        C573   1.380       .  A
C573        C574   1.378       .  A
C573        C789   1.437       .  S
C574        H576   1.082       .  S
O577       Cu585   2.007       .  S
O577        C587   1.277       .  A
O578       Cu585   2.018       .  S
O578        C588   1.279       .  A
O579       Cu585   2.006       .  S
O579        C589   1.276       .  A
O580       Cu585   2.017       .  S
O580        C590   1.278       .  A
O581       Cu586   2.003       .  S
O581        C590   1.276       .  A
O582       Cu586   2.017       .  S
O582        C589   1.279       .  A
O583       Cu586   2.002       .  S
O583        C588   1.276       .  A
O584       Cu586   2.016       .  S
O584        C587   1.278       .  A
Cu585      Cu586   2.377       .  S
C587        C656   1.468       .  S
C589        C594   1.468       .  S
C590        C742   1.467       .  S
N591        N592   1.323       .  A
N591        C595   1.346       .  A
N591       Cu599   2.078       .  S
N592        C593   1.345       .  A
N592       Cu598   2.073       .  S
C593        C594   1.381       .  A
C593        H596   1.082       .  S
C594        C595   1.383       .  A
C595        H597   1.082       .  S
Cu598       N601   2.072       .  S
Cu599       N609   2.079       .  S
Cu600       N602   2.072       .  S
Cu600       N608   2.072       .  S
N601        N602   1.322       .  A
N601        C605   1.346       .  A
N602        C603   1.345       .  A
C603        C604   1.383       .  A
C603        H606   1.082       .  S
C604        C605   1.382       .  A
C604        C726   1.468       .  S
C605        H607   1.082       .  S
N608        N609   1.324       .  A
N608        C612   1.345       .  A
N609        C610   1.346       .  A
C610        C611   1.380       .  A
C610        H613   1.082       .  S
C611        C612   1.378       .  A
C611        C785   1.437       .  S
C612        H614   1.082       .  S
N615        N616   1.323       .  A
N615        C619   1.346       .  A
N615       Cu623   2.078       .  S
N616        C617   1.345       .  A
N616       Cu622   2.072       .  S
C617        C618   1.381       .  A
C617        H620   1.082       .  S
C618        C619   1.383       .  A
C618        C712   1.468       .  S
C619        H621   1.082       .  S
Cu622       N625   2.072       .  S
Cu623       N633   2.079       .  S
Cu624       N626   2.072       .  S
Cu624       N632   2.072       .  S
N625        N626   1.322       .  A
N625        C629   1.346       .  A
N626        C627   1.345       .  A
C627        C628   1.383       .  A
C627        H630   1.082       .  S
C628        C629   1.382       .  A
C628        C649   1.468       .  S
C629        H631   1.082       .  S
N632        N633   1.324       .  A
N632        C636   1.345       .  A
N633        C634   1.346       .  A
C634        C635   1.380       .  A
C634        H637   1.082       .  S
C635        C636   1.378       .  A
C635        C788   1.437       .  S
C636        H638   1.082       .  S
O639       Cu911   2.019       .  S
O639        C649   1.279       .  A
O640       Cu647   2.007       .  S
O640        C650   1.277       .  A
O641       Cu647   2.017       .  S
O641        C651   1.279       .  A
O642       Cu911   2.006       .  S
O642        C652   1.277       .  A
O643       Cu912   2.016       .  S
O643        C652   1.279       .  A
O644       Cu648   2.002       .  S
O644        C651   1.276       .  A
O645       Cu648   2.016       .  S
O645        C650   1.278       .  A
O646       Cu912   2.002       .  S
O646        C649   1.276       .  A
Cu647       O903   2.019   1_554  S
Cu647       O906   2.006   1_554  S
Cu647      Cu648   2.377       .  S
Cu648       O907   2.016   1_554  S
Cu648       O910   2.002   1_554  S
C650        C766   1.468       .  S
C651        C680   1.467       .  S
N653        N654   1.323       .  A
N653        C657   1.346       .  A
N653       Cu661   2.078       .  S
N654        C655   1.345       .  A
N654       Cu660   2.073       .  S
C655        C656   1.382       .  A
C655        H658   1.082       .  S
C656        C657   1.383       .  A
C657        H659   1.082       .  S
Cu660       N663   2.073       .  S
Cu661       N671   2.078       .  S
Cu662       N664   2.072       .  S
Cu662       N670   2.072       .  S
N663        N664   1.322       .  A
N663        C667   1.345       .  A
N664        C665   1.345       .  A
C665        C666   1.383       .  A
C665        H668   1.082       .  S
C666        C667   1.382       .  A
C666        C728   1.467       .  S
C667        H669   1.082       .  S
N670        N671   1.324       .  A
N670        C674   1.345       .  A
N671        C672   1.346       .  A
C672        C673   1.380       .  A
C672        H675   1.082       .  S
C673        C674   1.378       .  A
C673        C784   1.437       .  S
C674        H676   1.082       .  S
N677        N678   1.322       .  A
N677        C681   1.345       .  A
N677       Cu685   2.071       .  S
N678        C679   1.346       .  A
N678       Cu684   2.073       .  S
C679        C680   1.382       .  A
C679        H682   1.082       .  S
C680        C681   1.382       .  A
C681        H683   1.082       .  S
Cu684       N687   2.073       .  S
Cu685       N695   2.071       .  S
Cu686       N688   2.078       .  S
Cu686       N694   2.078       .  S
N687        N688   1.323       .  A
N687        C691   1.345       .  A
N688        C689   1.346       .  A
C689        C690   1.383       .  A
C689        H692   1.082       .  S
C690        C691   1.382       .  A
C690        C714   1.468       .  S
C691        H693   1.082       .  S
N694        N695   1.324       .  A
N694        C698   1.346       .  A
N695        C696   1.345       .  A
C696        C697   1.378       .  A
C696        H699   1.082       .  S
C697        C698   1.380       .  A
C697        C781   1.437       .  S
C698        H700   1.082       .  S
O701       Cu709   2.002       .  S
O701        C711   1.276       .  A
O702       Cu709   2.016       .  S
O702        C712   1.279       .  A
O703       Cu709   2.002       .  S
O703        C713   1.276       .  A
O704       Cu709   2.015       .  S
O704        C714   1.278       .  A
O705       Cu710   2.007       .  S
O705        C714   1.277       .  A
O706       Cu710   2.019       .  S
O706        C713   1.279       .  A
O707       Cu710   2.006       .  S
O707        C712   1.277       .  A
O708       Cu710   2.017       .  S
O708        C711   1.278       .  A
Cu709      Cu710   2.377       .  S
C711        C756   1.467       .  S
O715       Cu723   2.006       .  S
O715        C725   1.277       .  A
O716       Cu987   2.018       .  S
O716        C726   1.279       .  A
O717       Cu987   2.006       .  S
O717        C727   1.276       .  A
O718       Cu723   2.017       .  S
O718        C728   1.278       .  A
O719       Cu724   2.003       .  S
O719        C728   1.276       .  A
O720       Cu988   2.017       .  S
O720        C727   1.279       .  A
O721       Cu988   2.002       .  S
O721        C726   1.276       .  A
O722       Cu724   2.016       .  S
O722        C725   1.279       .  A
Cu723       O980   2.018   1_554  S
Cu723       O981   2.006   1_554  S
Cu723      Cu724   2.377       .  S
Cu724       O984   2.017   1_554  S
Cu724       O985   2.002   1_554  S
C725        C732   1.468       .  S
N729        N730   1.323       .  A
N729        C733   1.346       .  A
N729       Cu737   2.078       .  S
N730        C731   1.345       .  A
C731        C732   1.382       .  A
C731        H734   1.082       .  S
C732        C733   1.383       .  A
C733        H735   1.082       .  S
Cu736       N739   2.073   1_545  S
Cu737       N747   2.078       .  S
Cu738       N740   2.072       .  S
Cu738       N746   2.072   1_565  S
N739        N740   1.322       .  A
N739        C743   1.345       .  A
N740        C741   1.345       .  A
C741        C742   1.383       .  A
C741        H744   1.082       .  S
C742        C743   1.382       .  A
C743        H745   1.082       .  S
N746        C750   1.345       .  A
N747        C748   1.346       .  A
C748        C749   1.380       .  A
C748        H751   1.082       .  S
C749        C777   1.437       .  S
C750        H752   1.082   1_545  S
N753        N754   1.322       .  A
N753        C757   1.345       .  A
N753       Cu761   2.071       .  S
N754        C755   1.346       .  A
N754       Cu760   2.073       .  S
C755        C756   1.382       .  A
C755        H758   1.082       .  S
C756        C757   1.382       .  A
C757        H759   1.082       .  S
Cu761       N771   2.071       .  S
Cu762       N764   2.078       .  S
N763        N764   1.323       .  A
N763        C767   1.345       .  A
N764        C765   1.346       .  A
C765        C766   1.383       .  A
C765        H768   1.082       .  S
C766        C767   1.382       .  A
C767        H769   1.082       .  S
N770        N771   1.324       .  A
N770        C774   1.346       .  A
N771        C772   1.345       .  A
C772        C773   1.378       .  A
C772        H775   1.082       .  S
C773        C774   1.380       .  A
C773        C780   1.437       .  S
C777        C778   1.206   1_455  T
C778        C779   1.412       .  S
C779        C780   1.206       .  T
C781        C782   1.206       .  T
C782        C783   1.412       .  S
C783        C784   1.206       .  T
C785        C786   1.206       .  T
C786        C787   1.412       .  S
C787        C788   1.206       .  T
C789        C790   1.206       .  T
C790        C791   1.412       .  S
C791        C792   1.206   1_655  T
N793        N794   1.323       .  A
N793        C797   1.346       .  A
N793       Cu801   2.078       .  S
N794        C795   1.345       .  A
C795        C796   1.381       .  A
C795        H798   1.082       .  S
C796        C797   1.383       .  A
C796        C991   1.468       .  S
C797        H799   1.082       .  S
Cu800       N803   2.072   1_545  S
Cu801       N811   2.079       .  S
Cu802       N804   2.072       .  S
Cu802       N810   2.072   1_565  S
N803        N804   1.322       .  A
N803        C807   1.346       .  A
N804        C805   1.345       .  A
C805        C806   1.383       .  A
C805        H808   1.082       .  S
C806        C807   1.382       .  A
C806        C852   1.468       .  S
C807        H809   1.082       .  S
N810        C814   1.345       .  A
N811        C812   1.346       .  A
C812        C813   1.380       .  A
C812        H815   1.082       .  S
C813       C1056   1.437       .  S
C814        H816   1.082   1_545  S
N817        N818   1.323       .  A
N817        C821   1.346       .  A
N817       Cu825   2.078       .  S
N818        C819   1.345       .  A
C819        C820   1.381       .  A
C819        H822   1.082       .  S
C820        C821   1.383       .  A
C820        C916   1.468       .  S
C821        H823   1.082       .  S
Cu824       N827   2.072       .  S
Cu826       N828   2.072       .  S
Cu826       N834   2.072       .  S
N827        N828   1.322       .  A
N827        C831   1.346       .  A
N828        C829   1.345       .  A
C829        C830   1.383       .  A
C829        H832   1.082       .  S
C830        C831   1.382       .  A
C830        C977   1.468       .  S
C831        H833   1.082       .  S
N834        N835   1.324       .  A
N834        C838   1.345       .  A
N835        C836   1.346       .  A
C836        C837   1.380       .  A
C837        C838   1.378       .  A
C837       C1053   1.437       .  S
C838        H840   1.082       .  S
O841       Cu849   2.007       .  S
O841        C851   1.277       .  A
O842       Cu849   2.018       .  S
O842        C852   1.279       .  A
O843       Cu849   2.006       .  S
O843        C853   1.276       .  A
O844       Cu849   2.017       .  S
O844        C854   1.278       .  A
O845       Cu850   2.003       .  S
O845        C854   1.276       .  A
O846       Cu850   2.017       .  S
O846        C853   1.279       .  A
O847       Cu850   2.002       .  S
O847        C852   1.276       .  A
O848       Cu850   2.016       .  S
O848        C851   1.278       .  A
Cu849      Cu850   2.377       .  S
C851        C920   1.468       .  S
C853        C858   1.468       .  S
C854       C1006   1.467       .  S
N855        N856   1.323       .  A
N855        C859   1.346       .  A
N855       Cu863   2.078       .  S
N856        C857   1.345       .  A
N856       Cu862   2.073       .  S
C857        C858   1.381       .  A
C857        H860   1.082       .  S
C858        C859   1.383       .  A
C859        H861   1.082       .  S
Cu862       N865   2.072       .  S
Cu863       N873   2.079       .  S
Cu864       N866   2.072       .  S
Cu864       N872   2.072       .  S
N865        N866   1.322       .  A
N865        C869   1.346       .  A
N866        C867   1.345       .  A
C867        C868   1.383       .  A
C867        H870   1.082       .  S
C868        C869   1.382       .  A
C868        C990   1.468       .  S
C869        H871   1.082       .  S
N872        N873   1.324       .  A
N872        C876   1.345       .  A
N873        C874   1.346       .  A
C874        C875   1.380       .  A
C874        H877   1.082       .  S
C875        C876   1.378       .  A
C875       C1049   1.437       .  S
C876        H878   1.082       .  S
N879        N880   1.323       .  A
N879        C883   1.346       .  A
N879       Cu887   2.078       .  S
N880        C881   1.345       .  A
N880       Cu886   2.072       .  S
C881        C882   1.381       .  A
C881        H884   1.082       .  S
C882        C883   1.383       .  A
C882        C976   1.468       .  S
C883        H885   1.082       .  S
Cu886       N889   2.072       .  S
Cu887       N897   2.079       .  S
Cu888       N890   2.072       .  S
Cu888       N896   2.072       .  S
N889        N890   1.322       .  A
N889        C893   1.346       .  A
N890        C891   1.345       .  A
C891        C892   1.383       .  A
C891        H894   1.082       .  S
C892        C893   1.382       .  A
C892        C913   1.468       .  S
C893        H895   1.082       .  S
N896        N897   1.324       .  A
N896        C900   1.345       .  A
N897        C898   1.346       .  A
C898        C899   1.380       .  A
C898        H901   1.082       .  S
C899        C900   1.378       .  A
C899       C1052   1.437       .  S
C900        H902   1.082       .  S
O903        C913   1.279       .  A
O904       Cu911   2.007       .  S
O904        C914   1.277       .  A
O905       Cu911   2.017       .  S
O905        C915   1.279       .  A
O906        C916   1.277       .  A
O907        C916   1.279       .  A
O908       Cu912   2.002       .  S
O908        C915   1.276       .  A
O909       Cu912   2.016       .  S
O909        C914   1.278       .  A
O910        C913   1.276       .  A
Cu911      Cu912   2.377       .  S
C914       C1030   1.468       .  S
C915        C944   1.467       .  S
N917        N918   1.323       .  A
N917        C921   1.346       .  A
N917       Cu925   2.078       .  S
N918        C919   1.345       .  A
N918       Cu924   2.073       .  S
C919        C920   1.382       .  A
C919        H922   1.082       .  S
C920        C921   1.383       .  A
C921        H923   1.082       .  S
Cu924       N927   2.073       .  S
Cu925       N935   2.078       .  S
Cu926       N928   2.072       .  S
Cu926       N934   2.072       .  S
N927        N928   1.322       .  A
N927        C931   1.345       .  A
N928        C929   1.345       .  A
C929        C930   1.383       .  A
C929        H932   1.082       .  S
C930        C931   1.382       .  A
C930        C992   1.467       .  S
C931        H933   1.082       .  S
N934        N935   1.324       .  A
N934        C938   1.345       .  A
N935        C936   1.346       .  A
C936        C937   1.380       .  A
C936        H939   1.082       .  S
C937        C938   1.378       .  A
C937       C1048   1.437       .  S
C938        H940   1.082       .  S
N941        N942   1.322       .  A
N941        C945   1.345       .  A
N941       Cu949   2.071       .  S
N942        C943   1.346       .  A
N942       Cu948   2.073       .  S
C943        C944   1.382       .  A
C943        H946   1.082       .  S
C944        C945   1.382       .  A
C945        H947   1.082       .  S
Cu948       N951   2.073       .  S
Cu949       N959   2.071       .  S
Cu950       N952   2.078       .  S
Cu950       N958   2.078       .  S
N951        N952   1.323       .  A
N951        C955   1.345       .  A
N952        C953   1.346       .  A
C953        C954   1.383       .  A
C953        H956   1.082       .  S
C954        C955   1.382       .  A
C954        C978   1.468       .  S
C955        H957   1.082       .  S
N958        N959   1.324       .  A
N958        C962   1.346       .  A
N959        C960   1.345       .  A
C960        C961   1.378       .  A
C960        H963   1.082       .  S
C961        C962   1.380       .  A
C961       C1045   1.437       .  S
C962        H964   1.082       .  S
O965       Cu973   2.002       .  S
O965        C975   1.276       .  A
O966       Cu973   2.016       .  S
O966        C976   1.279       .  A
O967       Cu973   2.002       .  S
O967        C977   1.276       .  A
O968       Cu973   2.015       .  S
O968        C978   1.278       .  A
O969       Cu974   2.007       .  S
O969        C978   1.277       .  A
O970       Cu974   2.019       .  S
O970        C977   1.279       .  A
O971       Cu974   2.006       .  S
O971        C976   1.277       .  A
O972       Cu974   2.017       .  S
O972        C975   1.278       .  A
Cu973      Cu974   2.377       .  S
C975       C1020   1.467       .  S
O979       Cu987   2.006       .  S
O979        C989   1.277       .  A
O980        C990   1.279       .  A
O981        C991   1.276       .  A
O982       Cu987   2.017       .  S
O982        C992   1.278       .  A
O983       Cu988   2.003       .  S
O983        C992   1.276       .  A
O984        C991   1.279       .  A
O985        C990   1.276       .  A
O986       Cu988   2.016       .  S
O986        C989   1.279       .  A
Cu987      Cu988   2.377       .  S
C989        C996   1.468       .  S
N993        N994   1.323       .  A
N993        C997   1.346       .  A
N993      Cu1001   2.078       .  S
N994        C995   1.345       .  A
C995        C996   1.382       .  A
C995        H998   1.082       .  S
C996        C997   1.383       .  A
C997        H999   1.082       .  S
Cu1000     N1003   2.073   1_545  S
Cu1001     N1011   2.078       .  S
Cu1002     N1004   2.072       .  S
Cu1002     N1010   2.072   1_565  S
N1003      N1004   1.322       .  A
N1003      C1007   1.346       .  A
N1004      C1005   1.345       .  A
C1005      C1006   1.383       .  A
C1005      H1008   1.082       .  S
C1006      C1007   1.382       .  A
C1007      H1009   1.082       .  S
N1010      C1014   1.345       .  A
N1011      C1012   1.346       .  A
C1012      C1013   1.380       .  A
C1012      H1015   1.082       .  S
C1013      C1041   1.437       .  S
C1014      H1016   1.082   1_545  S
N1017      N1018   1.322       .  A
N1017      C1021   1.345       .  A
N1017     Cu1025   2.071       .  S
N1018      C1019   1.346       .  A
N1018     Cu1024   2.073       .  S
C1019      C1020   1.382       .  A
C1019      H1022   1.082       .  S
C1020      C1021   1.382       .  A
C1021      H1023   1.082       .  S
Cu1025     N1035   2.071       .  S
Cu1026     N1028   2.078       .  S
N1027      N1028   1.323       .  A
N1027      C1031   1.345       .  A
N1028      C1029   1.346       .  A
C1029      C1030   1.383       .  A
C1029      H1032   1.082       .  S
C1030      C1031   1.382       .  A
C1031      H1033   1.082       .  S
N1034      N1035   1.324       .  A
N1034      C1038   1.346       .  A
N1035      C1036   1.345       .  A
C1036      C1037   1.378       .  A
C1036      H1039   1.082       .  S
C1037      C1038   1.380       .  A
C1037      C1044   1.437       .  S
C1041      C1042   1.206   1_455  T
C1042      C1043   1.412       .  S
C1043      C1044   1.206       .  T
C1045      C1046   1.206       .  T
C1046      C1047   1.412       .  S
C1047      C1048   1.206       .  T
C1049      C1050   1.206       .  T
C1050      C1051   1.412       .  S
C1051      C1052   1.206       .  T
C1053      C1054   1.206       .  T
C1054      C1055   1.412       .  S
C1055      C1056   1.206   1_655  T
