geometry optimzed in LAMMPS
_audit_creation_date              2020-11-30 
_audit_creation_method            'lammps2cif' 
_symmetry_space_group_name_H-M    'P1' 
_symmetry_Int_Tables_number       1 
_symmetry_cell_setting            triclinic 
loop_ 
_symmetry_equiv_pos_as_xyz 
  x,y,z 
_cell_length_a                    36.318125262914776 
_cell_length_b                    36.31091434902774 
_cell_length_c                    33.47283671412645 
_cell_angle_alpha                 89.99980789515166 
_cell_angle_beta                  90.00010151528923 
_cell_angle_gamma                 120.05655190011724 
loop_ 
_atom_site_label 
_atom_site_type_symbol 
_atom_site_fract_x 
_atom_site_fract_y 
_atom_site_fract_z 
_atom_site_charge 
Fe1        Fe  0.37375820  0.43709976  0.08258133     1.65780
Fe2        Fe  0.28024599  0.38993741  0.13369047     1.73250
Fe3        Fe  0.28028276  0.39001938  0.03150276     1.54420
O4          O  0.32197761  0.44680056  0.00360789    -0.83050
O5          O  0.24213606  0.32643748  0.11604920    -0.81350
O6          O  0.37652439  0.48339165  0.04501832    -0.85550
O7          O  0.37878675  0.40407974  0.03493250    -0.80410
O8          O  0.24197439  0.41508599  0.04915647    -0.82180
O9          O  0.32217168  0.37524103  0.16153718    -0.84930
C10         C  0.35339646  0.37417499  0.01225328     0.95840
C11         C  0.35617919  0.48015808  0.01319250     1.03280
O12         O  0.31126414  0.40558520  0.08259703    -1.13910
O13         O  0.31358152  0.45206285  0.15488775    -0.76340
O14         O  0.37846184  0.47501594  0.13017360    -0.79830
O15         O  0.31393164  0.36160830  0.01034875    -0.80520
C16         C  0.35297306  0.47925740  0.15289382     0.94740
O17         O  0.37691653  0.39383735  0.12021611    -0.78470
O18         O  0.23408621  0.40226432  0.11476733    -0.83670
C19         C  0.22334486  0.31079952  0.08283120     0.97370
C20         C  0.22318762  0.41189103  0.08237733     1.03280
O21         O  0.23427591  0.33134052  0.05043514    -0.79310
C22         C  0.35656530  0.37652625  0.15200742     1.01580
Fe23       Fe  0.05708935  0.43670614  0.08261662     1.65780
Fe24       Fe  0.10360518  0.38979841  0.13371805     1.73250
Fe25       Fe  0.10384507  0.39008093  0.03146902     1.54420
O26         O  0.04711795  0.37510954  0.00352794    -0.83050
O27         O  0.16707008  0.41493057  0.11619778    -0.81350
O28         O  0.01079334  0.39344802  0.04484303    -0.85550
O29         O  0.09034770  0.47487391  0.03518036    -0.80410
O30         O  0.07871197  0.32659454  0.04898754    -0.82180
O31         O  0.11857644  0.44649015  0.16171517    -0.84930
C32         C  0.12012356  0.47929696  0.01242882     0.95840
C33         C  0.01390996  0.37623108  0.01303620     1.03280
O34         O  0.08826541  0.40543544  0.08259929    -1.13910
O35         O  0.04146184  0.36119714  0.15479198    -0.76340
O36         O  0.01895243  0.40345055  0.13006927    -0.79830
O37         O  0.13246079  0.45224562  0.01037230    -0.80520
C38         C  0.01448137  0.37362181  0.15278238     0.94740
O39         O  0.10042076  0.48293840  0.12036902    -0.78470
O40         O  0.09102946  0.33125287  0.11468795    -0.83670
C41         C  0.18277305  0.41195867  0.08295758     0.97370
C42         C  0.08170351  0.31087901  0.08221491     1.03280
O43         O  0.16239676  0.40265661  0.05048404    -0.79310
C44         C  0.11755793  0.47975043  0.15219340     1.01580
Fe45       Fe  0.05658613  0.11981886  0.08251061     1.65780
Fe46       Fe  0.10366852  0.21340034  0.03141332     1.73250
Fe47       Fe  0.10367221  0.21332053  0.13362184     1.54420
O48         O  0.04687672  0.17167624  0.16153568    -0.83050
O49         O  0.16715199  0.25157615  0.04901983    -0.81350
O50         O  0.01038459  0.11694346  0.12028411    -0.85550
O51         O  0.08978868  0.11479716  0.12998903    -0.80410
O52         O  0.07868247  0.25171183  0.11600644    -0.82180
O53         O  0.11843658  0.17156281  0.00349871    -0.84930
C54         C  0.11960402  0.14018352  0.15274649     0.95840
C55         C  0.01357230  0.13738057  0.15204023     1.03280
O56         O  0.08806953  0.18234027  0.08251130    -1.13910
O57         O  0.04156684  0.18001721  0.01022989    -0.76340
O58         O  0.01852585  0.11515161  0.03507306    -0.79830
O59         O  0.13203213  0.17961986  0.15477559    -0.80520
C60         C  0.01432866  0.14063998  0.01230586     0.94740
O61         O  0.09971899  0.11668351  0.04468592    -0.78470
O62         O  0.09128307  0.25951016  0.05036108    -0.83670
C63         C  0.18284261  0.27029170  0.08225498     0.97360
C64         C  0.08176666  0.27045440  0.08278084     1.03280
O65         O  0.16236288  0.25928810  0.11468047    -0.79310
C66         C  0.11709850  0.13712216  0.01295114     1.01580
Fe67       Fe  0.43503332  0.37593787  0.24917665     1.65780
Fe68       Fe  0.38795172  0.28235621  0.19808022     1.73250
Fe69       Fe  0.38794418  0.28243681  0.30028873     1.54410
O70         O  0.44473896  0.32408145  0.32820344    -0.83050
O71         O  0.32446766  0.24417916  0.21568501    -0.81350
O72         O  0.48123460  0.37881124  0.28694932    -0.85550
O73         O  0.40183243  0.38096156  0.29665624    -0.80410
O74         O  0.41293363  0.24404426  0.28267610    -0.82180
O75         O  0.37318389  0.32419371  0.17016477    -0.84930
C76         C  0.37201504  0.35557548  0.31941227     0.95840
C77         C  0.47804501  0.35837520  0.31870683     1.03280
O78         O  0.40354900  0.31341647  0.24917784    -1.13910
O79         O  0.45005391  0.31573937  0.17689783    -0.76340
O80         O  0.47309311  0.38060527  0.20173846    -0.79830
O81         O  0.35958412  0.31613842  0.32143954    -0.80520
C82         C  0.47729131  0.35511685  0.17897244     0.94740
O83         O  0.39189982  0.37907266  0.21135208    -0.78470
O84         O  0.40033735  0.23624723  0.21702996    -0.83670
C85         C  0.30877585  0.22546409  0.24892015     0.97370
C86         C  0.40985140  0.22530219  0.24945065     1.03280
O87         O  0.32925407  0.23646906  0.28134645    -0.79310
C88         C  0.37452087  0.35863385  0.17961717     1.01580
Fe89       Fe  0.43452789  0.05904779  0.24928611     1.65780
Fe90       Fe  0.38801269  0.10595772  0.30038757     1.73250
Fe91       Fe  0.38777299  0.10567494  0.19813763     1.54420
O92         O  0.44450202  0.12065222  0.17019812    -0.83050
O93         O  0.32454854  0.08082877  0.28286631    -0.81350
O94         O  0.48082090  0.10229924  0.21150575    -0.85550
O95         O  0.40126293  0.02087414  0.20185593    -0.80410
O96         O  0.41290182  0.16916034  0.21565727    -0.82180
O97         O  0.37303730  0.04926545  0.32838501    -0.84930
C98         C  0.37149219  0.01645549  0.17909948     0.95840
C99         C  0.47770710  0.11952366  0.17970278     1.03280
O100        O  0.40335251  0.09031987  0.24926845    -1.13910
O101        O  0.45015496  0.13455544  0.32146366    -0.76340
O102        O  0.47267029  0.09230979  0.29673312    -0.79830
O103        O  0.35916120  0.04351148  0.17703727    -0.80520
C104        C  0.47713851  0.12213498  0.31944956     0.94740
O105        O  0.39120130  0.01281993  0.28704452    -0.78470
O106        O  0.40059189  0.16450486  0.28135881    -0.83670
C107        C  0.30884421  0.08379588  0.24962504     0.97370
C108        C  0.40991424  0.18487733  0.24888510     1.03280
O109        O  0.32921933  0.09309421  0.21715101    -0.79310
C110        C  0.37405985  0.01600684  0.31886611     1.01580
Fe111      Fe  0.11785838  0.05865570  0.24924583     1.65780
Fe112      Fe  0.21137119  0.10581709  0.30035585     1.73250
Fe113      Fe  0.21133551  0.10573618  0.19816757     1.54420
O114        O  0.16964250  0.04895503  0.17027183    -0.83050
O115        O  0.24948396  0.16931658  0.28271442    -0.81350
O116        O  0.11508972  0.01236686  0.21167678    -0.85550
O117        O  0.11283223  0.09168242  0.20160247    -0.80410
O118        O  0.24964464  0.08067058  0.21582208    -0.82180
O119        O  0.16944885  0.12051761  0.32820214    -0.84930
C120        C  0.13822250  0.12158416  0.17892063     0.95840
C121        C  0.13543784  0.01559929  0.17985330     1.03280
O122        O  0.18035299  0.09016976  0.24926191    -1.13910
O123        O  0.17803300  0.04369231  0.32155461    -0.76340
O124        O  0.11315438  0.02073408  0.29683316    -0.79830
O125        O  0.17768616  0.13414628  0.17701195    -0.80520
C126        C  0.13864247  0.01649510  0.31955666     0.94740
O127        O  0.11469872  0.10191337  0.28688608    -0.78560
O128        O  0.25752874  0.09348687  0.28143382    -0.83670
C129        C  0.26827388  0.18495568  0.24949621     0.97360
C130        C  0.26842931  0.08386285  0.24904367     1.03280
O131        O  0.25734164  0.16441566  0.21709972    -0.79310
C132        C  0.13505302  0.11922875  0.31867482     1.01580
Fe133      Fe  0.37375819  0.43709976  0.41591465     1.65780
Fe134      Fe  0.28024598  0.38993740  0.46702380     1.73250
Fe135      Fe  0.28028275  0.39001937  0.36483609     1.54420
O136        O  0.32197761  0.44680055  0.33694121    -0.83050
O137        O  0.24213606  0.32643748  0.44938252    -0.81350
O138        O  0.37652437  0.48339166  0.37835167    -0.85550
O139        O  0.37878674  0.40407976  0.36826582    -0.80410
O140        O  0.24197439  0.41508599  0.38248979    -0.82180
O141        O  0.32217168  0.37524103  0.49487050    -0.84930
C142        C  0.35339645  0.37417498  0.34558661     0.95840
C143        C  0.35617917  0.48015807  0.34652583     1.03280
O144        O  0.31126413  0.40558520  0.41593036    -1.13910
O145        O  0.31358151  0.45206285  0.48822108    -0.76340
O146        O  0.37846183  0.47501592  0.46350694    -0.79830
O147        O  0.31393163  0.36160828  0.34368209    -0.80520
C148        C  0.35297305  0.47925739  0.48622716     0.94740
O149        O  0.37691652  0.39383734  0.45354942    -0.78470
O150        O  0.23408620  0.40226431  0.44810066    -0.83670
C151        C  0.22334484  0.31079951  0.41616453     0.97370
C152        C  0.22318762  0.41189103  0.41571066     1.03280
O153        O  0.23427589  0.33134051  0.38376847    -0.79310
C154        C  0.35656530  0.37652625  0.48534074     1.01580
Fe155      Fe  0.05708934  0.43670614  0.41594995     1.65780
Fe156      Fe  0.10360518  0.38979841  0.46705138     1.73250
Fe157      Fe  0.10384507  0.39008093  0.36480235     1.54420
O158        O  0.04711794  0.37510954  0.33686128    -0.83050
O159        O  0.16707008  0.41493058  0.44953110    -0.81350
O160        O  0.01079333  0.39344800  0.37817637    -0.85550
O161        O  0.09034768  0.47487389  0.36851369    -0.80410
O162        O  0.07871196  0.32659454  0.38232088    -0.82180
O163        O  0.11857644  0.44649016  0.49504850    -0.84930
C164        C  0.12012355  0.47929695  0.34576215     0.95840
C165        C  0.01390995  0.37623107  0.34636954     1.03280
O166        O  0.08826541  0.40543544  0.41593263    -1.13910
O167        O  0.04146185  0.36119715  0.48812532    -0.76340
O168        O  0.01895244  0.40345056  0.46340261    -0.79830
O169        O  0.13246079  0.45224562  0.34370564    -0.80520
C170        C  0.01448137  0.37362182  0.48611572     0.94740
O171        O  0.10042076  0.48293840  0.45370234    -0.78470
O172        O  0.09102946  0.33125287  0.44802128    -0.83670
C173        C  0.18277304  0.41195867  0.41629091     0.97370
C174        C  0.08170350  0.31087901  0.41554824     1.03280
O175        O  0.16239675  0.40265660  0.38381737    -0.79310
C176        C  0.11755794  0.47975044  0.48552672     1.01580
Fe177      Fe  0.05658613  0.11981886  0.41584394     1.65780
Fe178      Fe  0.10366851  0.21340034  0.36474665     1.73250
Fe179      Fe  0.10367219  0.21332052  0.46695517     1.54420
O180        O  0.04687670  0.17167624  0.49486900    -0.83050
O181        O  0.16715197  0.25157615  0.38235316    -0.81350
O182        O  0.01038458  0.11694345  0.45361744    -0.85550
O183        O  0.08978867  0.11479716  0.46332236    -0.80410
O184        O  0.07868246  0.25171183  0.44933977    -0.82180
O185        O  0.11843657  0.17156281  0.33683203    -0.84930
C186        C  0.11960401  0.14018353  0.48607983     0.95840
C187        C  0.01357229  0.13738057  0.48537355     1.03280
O188        O  0.08806952  0.18234026  0.41584463    -1.13910
O189        O  0.04156682  0.18001720  0.34356323    -0.76340
O190        O  0.01852586  0.11515160  0.36840638    -0.79830
O191        O  0.13203212  0.17961986  0.48810892    -0.80520
C192        C  0.01432865  0.14063997  0.34563919     0.94740
O193        O  0.09971900  0.11668352  0.37801926    -0.78470
O194        O  0.09128306  0.25951016  0.38369441    -0.83670
C195        C  0.18284259  0.27029170  0.41558831     0.97360
C196        C  0.08176664  0.27045440  0.41611417     1.03280
O197        O  0.16236286  0.25928810  0.44801380    -0.79310
C198        C  0.11709850  0.13712216  0.34628447     1.01580
Fe199      Fe  0.43503332  0.37593789  0.58250998     1.65780
Fe200      Fe  0.38795174  0.28235622  0.53141354     1.73250
Fe201      Fe  0.38794419  0.28243682  0.63362205     1.54410
O202        O  0.44473897  0.32408145  0.66153676    -0.83050
O203        O  0.32446767  0.24417917  0.54901833    -0.81350
O204        O  0.48123459  0.37881127  0.62028267    -0.85550
O205        O  0.40183242  0.38096157  0.62998955    -0.80410
O206        O  0.41293363  0.24404426  0.61600943    -0.82180
O207        O  0.37318390  0.32419371  0.50349809    -0.84930
C208        C  0.37201504  0.35557550  0.65274560     0.95840
C209        C  0.47804501  0.35837521  0.65204017     1.03280
O210        O  0.40354901  0.31341649  0.58251117    -1.13910
O211        O  0.45005393  0.31573939  0.51023116    -0.76340
O212        O  0.47309313  0.38060529  0.53507181    -0.79830
O213        O  0.35958413  0.31613844  0.65477289    -0.80520
C214        C  0.47729132  0.35511687  0.51230578     0.94740
O215        O  0.39189983  0.37907267  0.54468539    -0.78470
O216        O  0.40033737  0.23624725  0.55036329    -0.83670
C217        C  0.30877586  0.22546410  0.58225347     0.97370
C218        C  0.40985141  0.22530220  0.58278398     1.03280
O219        O  0.32925407  0.23646908  0.61467977    -0.79310
C220        C  0.37452088  0.35863386  0.51295049     1.01580
Fe221      Fe  0.43452788  0.05904778  0.58261945     1.65780
Fe222      Fe  0.38801269  0.10595773  0.63372089     1.73250
Fe223      Fe  0.38777299  0.10567494  0.53147095     1.54420
O224        O  0.44450203  0.12065224  0.50353145    -0.83050
O225        O  0.32454855  0.08082879  0.61619963    -0.81350
O226        O  0.48082089  0.10229920  0.54483905    -0.85550
O227        O  0.40126289  0.02087411  0.53518929    -0.80410
O228        O  0.41290181  0.16916035  0.54899059    -0.82180
O229        O  0.37303729  0.04926546  0.66171835    -0.84930
C230        C  0.37149218  0.01645548  0.51243282     0.95840
C231        C  0.47770710  0.11952365  0.51303609     1.03280
O232        O  0.40335251  0.09031987  0.58260177    -1.13910
O233        O  0.45015496  0.13455544  0.65479700    -0.76340
O234        O  0.47267032  0.09230982  0.63006643    -0.79830
O235        O  0.35916121  0.04351149  0.51037058    -0.80520
C236        C  0.47713852  0.12213499  0.65278289     0.94740
O237        O  0.39120132  0.01281994  0.62037788    -0.78470
O238        O  0.40059191  0.16450487  0.61469214    -0.83670
C239        C  0.30884422  0.08379589  0.58295836     0.97370
C240        C  0.40991424  0.18487734  0.58221842     1.03280
O241        O  0.32921933  0.09309421  0.55048433    -0.79310
C242        C  0.37405986  0.01600685  0.65219947     1.01580
Fe243      Fe  0.11785838  0.05865569  0.58257916     1.65780
Fe244      Fe  0.21137120  0.10581710  0.63368917     1.73250
Fe245      Fe  0.21133551  0.10573619  0.53150089     1.54420
O246        O  0.16964251  0.04895504  0.50360515    -0.83050
O247        O  0.24948397  0.16931659  0.61604774    -0.81350
O248        O  0.11508972  0.01236687  0.54501008    -0.85550
O249        O  0.11283222  0.09168243  0.53493581    -0.80410
O250        O  0.24964465  0.08067060  0.54915540    -0.82180
O251        O  0.16944887  0.12051763  0.66153547    -0.84930
C252        C  0.13822249  0.12158417  0.51225397     0.95840
C253        C  0.13543784  0.01559931  0.51318661     1.03280
O254        O  0.18035299  0.09016977  0.58259524    -1.13910
O255        O  0.17803301  0.04369233  0.65488795    -0.76340
O256        O  0.11315440  0.02073406  0.63016648    -0.79830
O257        O  0.17768615  0.13414628  0.51034528    -0.80520
C258        C  0.13864248  0.01649511  0.65288999     0.94740
O259        O  0.11469871  0.10191335  0.62021943    -0.78560
O260        O  0.25752874  0.09348687  0.61476714    -0.83670
C261        C  0.26827389  0.18495569  0.58282953     0.97360
C262        C  0.26842932  0.08386287  0.58237698     1.03280
O263        O  0.25734164  0.16441567  0.55043304    -0.79310
C264        C  0.13505302  0.11922875  0.65200816     1.01580
Fe265      Fe  0.37375820  0.43709976  0.74924800     1.65780
Fe266      Fe  0.28024599  0.38993742  0.80035714     1.73250
Fe267      Fe  0.28028276  0.39001939  0.69816943     1.54420
O268        O  0.32197762  0.44680057  0.67027456    -0.83050
O269        O  0.24213607  0.32643749  0.78271588    -0.81350
O270        O  0.37652439  0.48339167  0.71168502    -0.85550
O271        O  0.37878674  0.40407976  0.70159916    -0.80410
O272        O  0.24197440  0.41508601  0.71582314    -0.82180
O273        O  0.32217169  0.37524106  0.82820386    -0.84930
C274        C  0.35339645  0.37417500  0.67891994     0.95840
C275        C  0.35617919  0.48015809  0.67985919     1.03280
O276        O  0.31126414  0.40558521  0.74926371    -1.13910
O277        O  0.31358152  0.45206287  0.82155441    -0.76340
O278        O  0.37846185  0.47501592  0.79684029    -0.79830
O279        O  0.31393163  0.36160830  0.67701543    -0.80520
C280        C  0.35297306  0.47925741  0.81956050     0.94740
O281        O  0.37691651  0.39383733  0.78688276    -0.78470
O282        O  0.23408620  0.40226432  0.78143400    -0.83670
C283        C  0.22334486  0.31079953  0.74949788     0.97370
C284        C  0.22318763  0.41189104  0.74904400     1.03280
O285        O  0.23427590  0.33134053  0.71710182    -0.79310
C286        C  0.35656530  0.37652625  0.81867409     1.01580
Fe287      Fe  0.05708935  0.43670615  0.74928328     1.65780
Fe288      Fe  0.10360517  0.38979842  0.80038472     1.73250
Fe289      Fe  0.10384507  0.39008094  0.69813569     1.54420
O290        O  0.04711795  0.37510954  0.67019461    -0.83050
O291        O  0.16707007  0.41493058  0.78286444    -0.81350
O292        O  0.01079333  0.39344802  0.71150970    -0.85550
O293        O  0.09034769  0.47487390  0.70184702    -0.80410
O294        O  0.07871197  0.32659455  0.71565421    -0.82180
O295        O  0.11857644  0.44649016  0.82838184    -0.84930
C296        C  0.12012355  0.47929696  0.67909548     0.95840
C297        C  0.01390996  0.37623108  0.67970287     1.03280
O298        O  0.08826541  0.40543545  0.74926596    -1.13910
O299        O  0.04146184  0.36119715  0.82145865    -0.76340
O300        O  0.01895244  0.40345057  0.79673594    -0.79830
O301        O  0.13246079  0.45224563  0.67703897    -0.80520
C302        C  0.01448137  0.37362183  0.81944905     0.94740
O303        O  0.10042077  0.48293841  0.78703567    -0.78470
O304        O  0.09102946  0.33125287  0.78135462    -0.83670
C305        C  0.18277305  0.41195868  0.74962425     0.97370
C306        C  0.08170351  0.31087902  0.74888157     1.03280
O307        O  0.16239676  0.40265662  0.71715071    -0.79310
C308        C  0.11755794  0.47975044  0.81886006     1.01580
Fe309      Fe  0.05658613  0.11981886  0.74917728     1.65780
Fe310      Fe  0.10366853  0.21340035  0.69807999     1.73250
Fe311      Fe  0.10367220  0.21332053  0.80028851     1.54420
O312        O  0.04687671  0.17167625  0.82820234    -0.83050
O313        O  0.16715199  0.25157616  0.71568651    -0.81350
O314        O  0.01038459  0.11694346  0.78695078    -0.85550
O315        O  0.08978868  0.11479716  0.79665570    -0.80410
O316        O  0.07868248  0.25171184  0.78267311    -0.82180
O317        O  0.11843660  0.17156282  0.67016538    -0.84930
C318        C  0.11960401  0.14018353  0.81941317     0.95840
C319        C  0.01357229  0.13738058  0.81870689     1.03280
O320        O  0.08806953  0.18234027  0.74917797    -1.13910
O321        O  0.04156684  0.18001721  0.67689655    -0.76340
O322        O  0.01852586  0.11515162  0.70173973    -0.79830
O323        O  0.13203212  0.17961986  0.82144227    -0.80520
C324        C  0.01432866  0.14063998  0.67897252     0.94740
O325        O  0.09971899  0.11668351  0.71135259    -0.78470
O326        O  0.09128307  0.25951016  0.71702774    -0.83670
C327        C  0.18284261  0.27029171  0.74892166     0.97360
C328        C  0.08176666  0.27045441  0.74944750     1.03280
O329        O  0.16236288  0.25928810  0.78134715    -0.79310
C330        C  0.11709851  0.13712217  0.67961781     1.01580
Fe331      Fe  0.43503333  0.37593788  0.91584332     1.65780
Fe332      Fe  0.38795174  0.28235622  0.86474688     1.73250
Fe333      Fe  0.38794420  0.28243682  0.96695539     1.54410
O334        O  0.44473898  0.32408146  0.99487010    -0.83050
O335        O  0.32446768  0.24417918  0.88235168    -0.81350
O336        O  0.48123461  0.37881126  0.95361598    -0.85550
O337        O  0.40183244  0.38096157  0.96332290    -0.80410
O338        O  0.41293365  0.24404428  0.94934277    -0.82180
O339        O  0.37318391  0.32419372  0.83683143    -0.84930
C340        C  0.37201505  0.35557549  0.98607894     0.95840
C341        C  0.47804503  0.35837522  0.98537349     1.03280
O342        O  0.40354902  0.31341649  0.91584451    -1.13910
O343        O  0.45005393  0.31573939  0.84356450    -0.76340
O344        O  0.47309311  0.38060529  0.86840512    -0.79830
O345        O  0.35958413  0.31613843  0.98810622    -0.80520
C346        C  0.47729132  0.35511687  0.84563910     0.94740
O347        O  0.39189982  0.37907266  0.87801875    -0.78470
O348        O  0.40033736  0.23624724  0.88369663    -0.83670
C349        C  0.30877586  0.22546410  0.91558681     0.97370
C350        C  0.40985142  0.22530220  0.91611732     1.03280
O351        O  0.32925409  0.23646907  0.94801311    -0.79310
C352        C  0.37452088  0.35863386  0.84628384     1.01580
Fe353      Fe  0.43452789  0.05904780  0.91595279     1.65780
Fe354      Fe  0.38801269  0.10595773  0.96705423     1.73250
Fe355      Fe  0.38777299  0.10567494  0.86480430     1.54420
O356        O  0.44450202  0.12065222  0.83686479    -0.83050
O357        O  0.32454854  0.08082878  0.94953298    -0.81350
O358        O  0.48082091  0.10229924  0.87817241    -0.85550
O359        O  0.40126293  0.02087414  0.86852261    -0.80410
O360        O  0.41290183  0.16916035  0.88232393    -0.82180
O361        O  0.37303730  0.04926546  0.99505169    -0.84930
C362        C  0.37149219  0.01645549  0.84576616     0.95840
C363        C  0.47770711  0.11952366  0.84636944     1.03280
O364        O  0.40335252  0.09031987  0.91593512    -1.13910
O365        O  0.45015496  0.13455545  0.98813034    -0.76340
O366        O  0.47267030  0.09230982  0.96339978    -0.79830
O367        O  0.35916120  0.04351149  0.84370395    -0.80520
C368        C  0.47713852  0.12213499  0.98611623     0.94740
O369        O  0.39120132  0.01281994  0.95371120    -0.78470
O370        O  0.40059189  0.16450486  0.94802547    -0.83670
C371        C  0.30884422  0.08379589  0.91629170     0.97370
C372        C  0.40991425  0.18487734  0.91555176     1.03280
O373        O  0.32921934  0.09309422  0.88381768    -0.79310
C374        C  0.37405986  0.01600685  0.98553279     1.01580
Fe375      Fe  0.11785839  0.05865569  0.91591250     1.65780
Fe376      Fe  0.21137120  0.10581710  0.96702252     1.73250
Fe377      Fe  0.21133551  0.10573620  0.86483424     1.54420
O378        O  0.16964251  0.04895504  0.83693849    -0.83050
O379        O  0.24948398  0.16931659  0.94938109    -0.81350
O380        O  0.11508973  0.01236687  0.87834343    -0.85550
O381        O  0.11283222  0.09168242  0.86826915    -0.80410
O382        O  0.24964466  0.08067061  0.88248874    -0.82180
O383        O  0.16944887  0.12051763  0.99486880    -0.84930
C384        C  0.13822250  0.12158417  0.84558731     0.95840
C385        C  0.13543785  0.01559931  0.84651996     1.03280
O386        O  0.18035300  0.09016977  0.91592858    -1.13910
O387        O  0.17803300  0.04369233  0.98822129    -0.76340
O388        O  0.11315439  0.02073406  0.96349982    -0.79830
O389        O  0.17768615  0.13414629  0.84367863    -0.80520
C390        C  0.13864248  0.01649510  0.98622333     0.94740
O391        O  0.11469871  0.10191335  0.95355276    -0.78560
O392        O  0.25752874  0.09348687  0.94810049    -0.83670
C393        C  0.26827390  0.18495569  0.91616288     0.97360
C394        C  0.26842932  0.08386286  0.91571033     1.03280
O395        O  0.25734164  0.16441568  0.88376638    -0.79310
C396        C  0.13505302  0.11922875  0.98534149     1.01580
Fe397      Fe  0.37375820  0.93709976  0.08258133     1.65780
Fe398      Fe  0.28024599  0.88993741  0.13369047     1.73250
Fe399      Fe  0.28028276  0.89001938  0.03150276     1.54420
O400        O  0.32197761  0.94680057  0.00360789    -0.83050
O401        O  0.24213606  0.82643749  0.11604920    -0.81350
O402        O  0.37652440  0.98339166  0.04501833    -0.85550
O403        O  0.37878675  0.90407974  0.03493250    -0.80410
O404        O  0.24197439  0.91508599  0.04915647    -0.82180
O405        O  0.32217168  0.87524103  0.16153718    -0.84930
C406        C  0.35339646  0.87417499  0.01225328     0.95840
C407        C  0.35617919  0.98015808  0.01319251     1.03280
O408        O  0.31126414  0.90558521  0.08259703    -1.13910
O409        O  0.31358152  0.95206286  0.15488775    -0.76340
O410        O  0.37846185  0.97501593  0.13017361    -0.79830
O411        O  0.31393164  0.86160831  0.01034874    -0.80520
C412        C  0.35297306  0.97925740  0.15289382     0.94740
O413        O  0.37691652  0.89383734  0.12021610    -0.78470
O414        O  0.23408621  0.90226432  0.11476734    -0.83670
C415        C  0.22334486  0.81079952  0.08283120     0.97370
C416        C  0.22318762  0.91189103  0.08237733     1.03280
O417        O  0.23427591  0.83134052  0.05043514    -0.79310
C418        C  0.35656530  0.87652624  0.15200742     1.01580
Fe419      Fe  0.05708935  0.93670614  0.08261662     1.65780
Fe420      Fe  0.10360517  0.88979841  0.13371806     1.73250
Fe421      Fe  0.10384506  0.89008092  0.03146903     1.54420
O422        O  0.04711794  0.87510953  0.00352795    -0.83050
O423        O  0.16707007  0.91493057  0.11619778    -0.81350
O424        O  0.01079334  0.89344802  0.04484303    -0.85550
O425        O  0.09034770  0.97487391  0.03518037    -0.80410
O426        O  0.07871197  0.82659454  0.04898755    -0.82180
O427        O  0.11857644  0.94649015  0.16171518    -0.84930
C428        C  0.12012356  0.97929695  0.01242883     0.95840
C429        C  0.01390996  0.87623107  0.01303621     1.03280
O430        O  0.08826541  0.90543544  0.08259930    -1.13910
O431        O  0.04146184  0.86119714  0.15479199    -0.76340
O432        O  0.01895243  0.90345055  0.13006928    -0.79830
O433        O  0.13246078  0.95224562  0.01037230    -0.80520
C434        C  0.01448136  0.87362181  0.15278238     0.94740
O435        O  0.10042076  0.98293840  0.12036903    -0.78470
O436        O  0.09102945  0.83125286  0.11468796    -0.83670
C437        C  0.18277304  0.91195867  0.08295759     0.97370
C438        C  0.08170351  0.81087901  0.08221492     1.03280
O439        O  0.16239676  0.90265661  0.05048404    -0.79310
C440        C  0.11755793  0.97975043  0.15219341     1.01580
Fe441      Fe  0.05658613  0.61981886  0.08251061     1.65780
Fe442      Fe  0.10366852  0.71340034  0.03141332     1.73250
Fe443      Fe  0.10367221  0.71332053  0.13362184     1.54420
O444        O  0.04687673  0.67167624  0.16153568    -0.83050
O445        O  0.16715199  0.75157615  0.04901983    -0.81350
O446        O  0.01038458  0.61694347  0.12028411    -0.85550
O447        O  0.08978867  0.61479716  0.12998904    -0.80410
O448        O  0.07868247  0.75171183  0.11600645    -0.82180
O449        O  0.11843658  0.67156281  0.00349871    -0.84930
C450        C  0.11960401  0.64018352  0.15274649     0.95840
C451        C  0.01357230  0.63738057  0.15204023     1.03280
O452        O  0.08806953  0.68234027  0.08251130    -1.13910
O453        O  0.04156683  0.68001721  0.01022990    -0.76340
O454        O  0.01852586  0.61515161  0.03507306    -0.79830
O455        O  0.13203214  0.67961986  0.15477558    -0.80520
C456        C  0.01432866  0.64063998  0.01230586     0.94740
O457        O  0.09971900  0.61668351  0.04468593    -0.78470
O458        O  0.09128307  0.75951016  0.05036109    -0.83670
C459        C  0.18284261  0.77029171  0.08225498     0.97360
C460        C  0.08176666  0.77045440  0.08278085     1.03280
O461        O  0.16236288  0.75928810  0.11468047    -0.79310
C462        C  0.11709850  0.63712216  0.01295115     1.01580
Fe463      Fe  0.43503331  0.87593787  0.24917665     1.65780
Fe464      Fe  0.38795172  0.78235620  0.19808021     1.73250
Fe465      Fe  0.38794418  0.78243680  0.30028872     1.54410
O466        O  0.44473895  0.82408145  0.32820344    -0.83050
O467        O  0.32446766  0.74417917  0.21568501    -0.81350
O468        O  0.48123460  0.87881124  0.28694931    -0.85550
O469        O  0.40183244  0.88096155  0.29665624    -0.80410
O470        O  0.41293364  0.74404427  0.28267610    -0.82180
O471        O  0.37318390  0.82419371  0.17016476    -0.84930
C472        C  0.37201504  0.85557548  0.31941227     0.95840
C473        C  0.47804501  0.85837520  0.31870682     1.03280
O474        O  0.40354900  0.81341647  0.24917784    -1.13910
O475        O  0.45005392  0.81573936  0.17689784    -0.76340
O476        O  0.47309309  0.88060527  0.20173845    -0.79830
O477        O  0.35958411  0.81613841  0.32143954    -0.80520
C478        C  0.47729130  0.85511684  0.17897243     0.94740
O479        O  0.39189980  0.87907264  0.21135209    -0.78470
O480        O  0.40033734  0.73624722  0.21702996    -0.83670
C481        C  0.30877585  0.72546408  0.24892014     0.97370
C482        C  0.40985140  0.72530219  0.24945065     1.03280
O483        O  0.32925407  0.73646905  0.28134644    -0.79310
C484        C  0.37452087  0.85863384  0.17961717     1.01580
Fe485      Fe  0.43452787  0.55904778  0.24928612     1.65780
Fe486      Fe  0.38801268  0.60595771  0.30038757     1.73250
Fe487      Fe  0.38777298  0.60567493  0.19813763     1.54420
O488        O  0.44450201  0.62065221  0.17019813    -0.83050
O489        O  0.32454853  0.58082876  0.28286631    -0.81350
O490        O  0.48082090  0.60229923  0.21150576    -0.85550
O491        O  0.40126292  0.52087414  0.20185593    -0.80410
O492        O  0.41290182  0.66916034  0.21565727    -0.82180
O493        O  0.37303730  0.54926545  0.32838502    -0.84930
C494        C  0.37149218  0.51645549  0.17909948     0.95840
C495        C  0.47770710  0.61952365  0.17970279     1.03280
O496        O  0.40335250  0.59031986  0.24926845    -1.13910
O497        O  0.45015495  0.63455544  0.32146366    -0.76340
O498        O  0.47267027  0.59230978  0.29673313    -0.79830
O499        O  0.35916119  0.54351148  0.17703727    -0.80520
C500        C  0.47713850  0.62213497  0.31944957     0.94740
O501        O  0.39120127  0.51281991  0.28704452    -0.78470
O502        O  0.40059188  0.66450485  0.28135881    -0.83670
C503        C  0.30884421  0.58379587  0.24962504     0.97370
C504        C  0.40991424  0.68487732  0.24888510     1.03280
O505        O  0.32921933  0.59309421  0.21715101    -0.79310
C506        C  0.37405984  0.51600683  0.31886612     1.01580
Fe507      Fe  0.11785838  0.55865569  0.24924583     1.65780
Fe508      Fe  0.21137119  0.60581709  0.30035585     1.73250
Fe509      Fe  0.21133550  0.60573618  0.19816757     1.54420
O510        O  0.16964250  0.54895503  0.17027183    -0.83050
O511        O  0.24948396  0.66931658  0.28271441    -0.81350
O512        O  0.11508972  0.51236685  0.21167677    -0.85550
O513        O  0.11283222  0.59168241  0.20160247    -0.80410
O514        O  0.24964464  0.58067058  0.21582208    -0.82180
O515        O  0.16944885  0.62051761  0.32820214    -0.84930
C516        C  0.13822250  0.62158416  0.17892063     0.95840
C517        C  0.13543784  0.51559929  0.17985329     1.03280
O518        O  0.18035299  0.59016976  0.24926191    -1.13910
O519        O  0.17803300  0.54369231  0.32155461    -0.76340
O520        O  0.11315439  0.52073407  0.29683316    -0.79830
O521        O  0.17768615  0.63414628  0.17701195    -0.80520
C522        C  0.13864247  0.51649510  0.31955666     0.94740
O523        O  0.11469871  0.60191336  0.28688608    -0.78560
O524        O  0.25752873  0.59348687  0.28143382    -0.83670
C525        C  0.26827388  0.68495568  0.24949620     0.97360
C526        C  0.26842931  0.58386285  0.24904366     1.03280
O527        O  0.25734164  0.66441566  0.21709971    -0.79310
C528        C  0.13505302  0.61922875  0.31867482     1.01580
Fe529      Fe  0.37375820  0.93709976  0.41591465     1.65780
Fe530      Fe  0.28024598  0.88993740  0.46702379     1.73250
Fe531      Fe  0.28028275  0.89001937  0.36483608     1.54420
O532        O  0.32197761  0.94680056  0.33694121    -0.83050
O533        O  0.24213606  0.82643748  0.44938251    -0.81350
O534        O  0.37652439  0.98339165  0.37835166    -0.85550
O535        O  0.37878674  0.90407974  0.36826582    -0.80410
O536        O  0.24197439  0.91508599  0.38248979    -0.82180
O537        O  0.32217167  0.87524102  0.49487050    -0.84930
C538        C  0.35339645  0.87417498  0.34558661     0.95840
C539        C  0.35617919  0.98015807  0.34652583     1.03280
O540        O  0.31126414  0.90558520  0.41593036    -1.13910
O541        O  0.31358152  0.95206285  0.48822108    -0.76340
O542        O  0.37846184  0.97501593  0.46350693    -0.79830
O543        O  0.31393164  0.86160829  0.34368207    -0.80520
C544        C  0.35297305  0.97925740  0.48622715     0.94740
O545        O  0.37691652  0.89383734  0.45354942    -0.78470
O546        O  0.23408620  0.90226431  0.44810065    -0.83670
C547        C  0.22334485  0.81079952  0.41616452     0.97370
C548        C  0.22318762  0.91189103  0.41571065     1.03280
O549        O  0.23427590  0.83134051  0.38376846    -0.79310
C550        C  0.35656530  0.87652624  0.48534074     1.01580
Fe551      Fe  0.05708934  0.93670613  0.41594994     1.65780
Fe552      Fe  0.10360518  0.88979841  0.46705138     1.73250
Fe553      Fe  0.10384506  0.89008093  0.36480235     1.54420
O554        O  0.04711794  0.87510953  0.33686127    -0.83050
O555        O  0.16707007  0.91493058  0.44953110    -0.81350
O556        O  0.01079332  0.89344800  0.37817636    -0.85550
O557        O  0.09034768  0.97487389  0.36851368    -0.80410
O558        O  0.07871197  0.82659454  0.38232087    -0.82180
O559        O  0.11857645  0.94649016  0.49504849    -0.84930
C560        C  0.12012355  0.97929695  0.34576215     0.95840
C561        C  0.01390995  0.87623106  0.34636953     1.03280
O562        O  0.08826541  0.90543544  0.41593262    -1.13910
O563        O  0.04146185  0.86119715  0.48812532    -0.76340
O564        O  0.01895243  0.90345055  0.46340260    -0.79830
O565        O  0.13246078  0.95224562  0.34370563    -0.80520
C566        C  0.01448137  0.87362182  0.48611571     0.94740
O567        O  0.10042075  0.98293840  0.45370234    -0.78470
O568        O  0.09102946  0.83125287  0.44802128    -0.83670
C569        C  0.18277305  0.91195867  0.41629090     0.97370
C570        C  0.08170350  0.81087901  0.41554823     1.03280
O571        O  0.16239676  0.90265661  0.38381736    -0.79310
C572        C  0.11755793  0.97975044  0.48552671     1.01580
Fe573      Fe  0.05658613  0.61981886  0.41584394     1.65780
Fe574      Fe  0.10366851  0.71340034  0.36474664     1.73250
Fe575      Fe  0.10367220  0.71332053  0.46695517     1.54420
O576        O  0.04687672  0.67167624  0.49486900    -0.83050
O577        O  0.16715198  0.75157614  0.38235315    -0.81350
O578        O  0.01038459  0.61694346  0.45361744    -0.85550
O579        O  0.08978868  0.61479717  0.46332236    -0.80410
O580        O  0.07868246  0.75171183  0.44933977    -0.82180
O581        O  0.11843657  0.67156280  0.33683203    -0.84930
C582        C  0.11960402  0.64018353  0.48607982     0.95840
C583        C  0.01357230  0.63738057  0.48537355     1.03280
O584        O  0.08806953  0.68234027  0.41584462    -1.13910
O585        O  0.04156682  0.68001721  0.34356323    -0.76340
O586        O  0.01852586  0.61515161  0.36840639    -0.79830
O587        O  0.13203214  0.67961987  0.48810891    -0.80520
C588        C  0.01432865  0.64063998  0.34563919     0.94740
O589        O  0.09971900  0.61668351  0.37801926    -0.78470
O590        O  0.09128307  0.75951016  0.38369440    -0.83670
C591        C  0.18284260  0.77029170  0.41558830     0.97360
C592        C  0.08176665  0.77045440  0.41611416     1.03280
O593        O  0.16236287  0.75928810  0.44801379    -0.79310
C594        C  0.11709850  0.63712216  0.34628447     1.01580
Fe595      Fe  0.43503332  0.87593789  0.58250998     1.65780
Fe596      Fe  0.38795173  0.78235622  0.53141355     1.73250
Fe597      Fe  0.38794418  0.78243682  0.63362206     1.54410
O598        O  0.44473897  0.82408146  0.66153677    -0.83050
O599        O  0.32446767  0.74417917  0.54901835    -0.81350
O600        O  0.48123459  0.87881127  0.62028266    -0.85550
O601        O  0.40183242  0.88096157  0.62998955    -0.80410
O602        O  0.41293363  0.74404426  0.61600944    -0.82180
O603        O  0.37318389  0.82419371  0.50349810    -0.84930
C604        C  0.37201505  0.85557550  0.65274560     0.95840
C605        C  0.47804501  0.85837521  0.65204017     1.03280
O606        O  0.40354901  0.81341649  0.58251117    -1.13910
O607        O  0.45005392  0.81573938  0.51023117    -0.76340
O608        O  0.47309312  0.88060529  0.53507180    -0.79830
O609        O  0.35958413  0.81613844  0.65477289    -0.80520
C610        C  0.47729132  0.85511686  0.51230577     0.94740
O611        O  0.39189983  0.87907267  0.54468540    -0.78470
O612        O  0.40033736  0.73624724  0.55036330    -0.83670
C613        C  0.30877585  0.72546410  0.58225348     0.97370
C614        C  0.40985140  0.72530220  0.58278399     1.03280
O615        O  0.32925407  0.73646908  0.61467978    -0.79310
C616        C  0.37452087  0.85863385  0.51295050     1.01580
Fe617      Fe  0.43452788  0.55904778  0.58261945     1.65780
Fe618      Fe  0.38801269  0.60595772  0.63372090     1.73250
Fe619      Fe  0.38777299  0.60567494  0.53147096     1.54420
O620        O  0.44450202  0.62065224  0.50353146    -0.83050
O621        O  0.32454855  0.58082879  0.61619965    -0.81350
O622        O  0.48082089  0.60229920  0.54483906    -0.85550
O623        O  0.40126289  0.52087411  0.53518929    -0.80410
O624        O  0.41290181  0.66916034  0.54899060    -0.82180
O625        O  0.37303729  0.54926546  0.66171836    -0.84930
C626        C  0.37149217  0.51645548  0.51243283     0.95840
C627        C  0.47770710  0.61952365  0.51303610     1.03280
O628        O  0.40335251  0.59031987  0.58260178    -1.13910
O629        O  0.45015496  0.63455544  0.65479701    -0.76340
O630        O  0.47267031  0.59230982  0.63006643    -0.79830
O631        O  0.35916121  0.54351149  0.51037059    -0.80520
C632        C  0.47713852  0.62213499  0.65278289     0.94740
O633        O  0.39120132  0.51281994  0.62037789    -0.78470
O634        O  0.40059191  0.66450487  0.61469215    -0.83670
C635        C  0.30884421  0.58379588  0.58295837     0.97370
C636        C  0.40991424  0.68487733  0.58221844     1.03280
O637        O  0.32921933  0.59309420  0.55048434    -0.79310
C638        C  0.37405986  0.51600685  0.65219947     1.01580
Fe639      Fe  0.11785838  0.55865570  0.58257916     1.65780
Fe640      Fe  0.21137120  0.60581710  0.63368918     1.73250
Fe641      Fe  0.21133551  0.60573619  0.53150090     1.54420
O642        O  0.16964251  0.54895504  0.50360516    -0.83050
O643        O  0.24948397  0.66931660  0.61604775    -0.81350
O644        O  0.11508972  0.51236687  0.54501009    -0.85550
O645        O  0.11283223  0.59168243  0.53493581    -0.80410
O646        O  0.24964465  0.58067059  0.54915541    -0.82180
O647        O  0.16944886  0.62051762  0.66153547    -0.84930
C648        C  0.13822250  0.62158417  0.51225397     0.95840
C649        C  0.13543784  0.51559931  0.51318662     1.03280
O650        O  0.18035299  0.59016977  0.58259524    -1.13910
O651        O  0.17803300  0.54369232  0.65488795    -0.76340
O652        O  0.11315439  0.52073407  0.63016649    -0.79830
O653        O  0.17768616  0.63414629  0.51034528    -0.80520
C654        C  0.13864247  0.51649511  0.65288999     0.94740
O655        O  0.11469871  0.60191336  0.62021942    -0.78560
O656        O  0.25752874  0.59348688  0.61476715    -0.83670
C657        C  0.26827389  0.68495569  0.58282954     0.97360
C658        C  0.26842931  0.58386286  0.58237700     1.03280
O659        O  0.25734164  0.66441567  0.55043305    -0.79310
C660        C  0.13505302  0.61922876  0.65200816     1.01580
Fe661      Fe  0.37375820  0.93709977  0.74924800     1.65780
Fe662      Fe  0.28024599  0.88993742  0.80035714     1.73250
Fe663      Fe  0.28028276  0.89001939  0.69816943     1.54420
O664        O  0.32197762  0.94680057  0.67027456    -0.83050
O665        O  0.24213607  0.82643749  0.78271587    -0.81350
O666        O  0.37652439  0.98339167  0.71168502    -0.85550
O667        O  0.37878674  0.90407977  0.70159916    -0.80410
O668        O  0.24197440  0.91508601  0.71582314    -0.82180
O669        O  0.32217170  0.87524105  0.82820385    -0.84930
C670        C  0.35339645  0.87417500  0.67891995     0.95840
C671        C  0.35617919  0.98015809  0.67985919     1.03280
O672        O  0.31126414  0.90558521  0.74926371    -1.13910
O673        O  0.31358152  0.95206287  0.82155442    -0.76340
O674        O  0.37846185  0.97501592  0.79684029    -0.79830
O675        O  0.31393163  0.86160830  0.67701543    -0.80520
C676        C  0.35297306  0.97925741  0.81956050     0.94740
O677        O  0.37691652  0.89383734  0.78688276    -0.78470
O678        O  0.23408620  0.90226432  0.78143401    -0.83670
C679        C  0.22334485  0.81079953  0.74949788     0.97370
C680        C  0.22318763  0.91189104  0.74904400     1.03280
O681        O  0.23427590  0.83134053  0.71710182    -0.79310
C682        C  0.35656531  0.87652625  0.81867408     1.01580
Fe683      Fe  0.05708936  0.93670615  0.74928328     1.65780
Fe684      Fe  0.10360518  0.88979842  0.80038472     1.73250
Fe685      Fe  0.10384507  0.89008094  0.69813569     1.54420
O686        O  0.04711795  0.87510955  0.67019461    -0.83050
O687        O  0.16707008  0.91493059  0.78286445    -0.81350
O688        O  0.01079334  0.89344802  0.71150971    -0.85550
O689        O  0.09034770  0.97487390  0.70184702    -0.80410
O690        O  0.07871197  0.82659455  0.71565421    -0.82180
O691        O  0.11857644  0.94649016  0.82838184    -0.84930
C692        C  0.12012356  0.97929696  0.67909548     0.95840
C693        C  0.01390996  0.87623108  0.67970287     1.03280
O694        O  0.08826542  0.90543545  0.74926596    -1.13910
O695        O  0.04146185  0.86119715  0.82145865    -0.76340
O696        O  0.01895245  0.90345058  0.79673595    -0.79830
O697        O  0.13246080  0.95224563  0.67703897    -0.80520
C698        C  0.01448138  0.87362183  0.81944905     0.94740
O699        O  0.10042078  0.98293842  0.78703567    -0.78470
O700        O  0.09102946  0.83125288  0.78135462    -0.83670
C701        C  0.18277305  0.91195868  0.74962426     0.97370
C702        C  0.08170351  0.81087902  0.74888158     1.03280
O703        O  0.16239676  0.90265661  0.71715071    -0.79310
C704        C  0.11755794  0.97975044  0.81886006     1.01580
Fe705      Fe  0.05658612  0.61981887  0.74917728     1.65780
Fe706      Fe  0.10366852  0.71340035  0.69807999     1.73250
Fe707      Fe  0.10367220  0.71332054  0.80028852     1.54420
O708        O  0.04687671  0.67167625  0.82820235    -0.83050
O709        O  0.16715199  0.75157616  0.71568651    -0.81350
O710        O  0.01038458  0.61694347  0.78695079    -0.85550
O711        O  0.08978868  0.61479717  0.79665570    -0.80410
O712        O  0.07868247  0.75171184  0.78267311    -0.82180
O713        O  0.11843659  0.67156283  0.67016538    -0.84930
C714        C  0.11960401  0.64018353  0.81941317     0.95840
C715        C  0.01357229  0.63738058  0.81870690     1.03280
O716        O  0.08806952  0.68234028  0.74917797    -1.13910
O717        O  0.04156684  0.68001721  0.67689656    -0.76340
O718        O  0.01852585  0.61515162  0.70173973    -0.79830
O719        O  0.13203212  0.67961987  0.82144227    -0.80520
C720        C  0.01432866  0.64063999  0.67897253     0.94740
O721        O  0.09971899  0.61668351  0.71135259    -0.78470
O722        O  0.09128306  0.75951016  0.71702775    -0.83670
C723        C  0.18284260  0.77029171  0.74892166     0.97360
C724        C  0.08176665  0.77045441  0.74944751     1.03280
O725        O  0.16236287  0.75928811  0.78134715    -0.79310
C726        C  0.11709850  0.63712217  0.67961781     1.01580
Fe727      Fe  0.43503333  0.87593788  0.91584332     1.65780
Fe728      Fe  0.38795174  0.78235622  0.86474688     1.73250
Fe729      Fe  0.38794419  0.78243682  0.96695539     1.54410
O730        O  0.44473897  0.82408146  0.99487010    -0.83050
O731        O  0.32446768  0.74417918  0.88235167    -0.81350
O732        O  0.48123460  0.87881126  0.95361599    -0.85550
O733        O  0.40183244  0.88096157  0.96332290    -0.80410
O734        O  0.41293364  0.74404427  0.94934277    -0.82180
O735        O  0.37318391  0.82419372  0.83683143    -0.84930
C736        C  0.37201505  0.85557549  0.98607893     0.95840
C737        C  0.47804502  0.85837521  0.98537349     1.03280
O738        O  0.40354901  0.81341649  0.91584450    -1.13910
O739        O  0.45005393  0.81573938  0.84356450    -0.76340
O740        O  0.47309312  0.88060529  0.86840513    -0.79830
O741        O  0.35958413  0.81613843  0.98810621    -0.80520
C742        C  0.47729132  0.85511686  0.84563910     0.94740
O743        O  0.39189983  0.87907267  0.87801874    -0.78470
O744        O  0.40033736  0.73624724  0.88369663    -0.83670
C745        C  0.30877586  0.72546410  0.91558680     0.97370
C746        C  0.40985141  0.72530220  0.91611732     1.03280
O747        O  0.32925408  0.73646907  0.94801311    -0.79310
C748        C  0.37452088  0.85863386  0.84628383     1.01580
Fe749      Fe  0.43452789  0.55904780  0.91595278     1.65780
Fe750      Fe  0.38801268  0.60595772  0.96705423     1.73250
Fe751      Fe  0.38777299  0.60567494  0.86480429     1.54420
O752        O  0.44450202  0.62065222  0.83686479    -0.83050
O753        O  0.32454853  0.58082877  0.94953297    -0.81350
O754        O  0.48082091  0.60229924  0.87817241    -0.85550
O755        O  0.40126292  0.52087415  0.86852260    -0.80410
O756        O  0.41290183  0.66916035  0.88232393    -0.82180
O757        O  0.37303728  0.54926545  0.99505168    -0.84930
C758        C  0.37149219  0.51645549  0.84576616     0.95840
C759        C  0.47770711  0.61952366  0.84636944     1.03280
O760        O  0.40335251  0.59031987  0.91593511    -1.13910
O761        O  0.45015494  0.63455544  0.98813034    -0.76340
O762        O  0.47267029  0.59230981  0.96339979    -0.79830
O763        O  0.35916120  0.54351149  0.84370394    -0.80520
C764        C  0.47713850  0.62213499  0.98611624     0.94740
O765        O  0.39120131  0.51281994  0.95371120    -0.78470
O766        O  0.40059188  0.66450486  0.94802547    -0.83670
C767        C  0.30884421  0.58379589  0.91629169     0.97370
C768        C  0.40991424  0.68487733  0.91555176     1.03280
O769        O  0.32921934  0.59309423  0.88381767    -0.79310
C770        C  0.37405985  0.51600684  0.98553279     1.01580
Fe771      Fe  0.11785838  0.55865569  0.91591250     1.65780
Fe772      Fe  0.21137120  0.60581711  0.96702251     1.73250
Fe773      Fe  0.21133550  0.60573620  0.86483423     1.54420
O774        O  0.16964250  0.54895505  0.83693849    -0.83050
O775        O  0.24948397  0.66931660  0.94938108    -0.81350
O776        O  0.11508973  0.51236687  0.87834343    -0.85550
O777        O  0.11283222  0.59168242  0.86826915    -0.80410
O778        O  0.24964465  0.58067060  0.88248873    -0.82180
O779        O  0.16944886  0.62051763  0.99486880    -0.84930
C780        C  0.13822249  0.62158417  0.84558731     0.95840
C781        C  0.13543784  0.51559931  0.84651995     1.03280
O782        O  0.18035299  0.59016977  0.91592857    -1.13910
O783        O  0.17803301  0.54369233  0.98822128    -0.76340
O784        O  0.11315440  0.52073407  0.96349982    -0.79830
O785        O  0.17768615  0.63414629  0.84367862    -0.80520
C786        C  0.13864248  0.51649511  0.98622333     0.94740
O787        O  0.11469871  0.60191335  0.95355276    -0.78560
O788        O  0.25752874  0.59348688  0.94810048    -0.83670
C789        C  0.26827389  0.68495569  0.91616287     0.97360
C790        C  0.26842931  0.58386287  0.91571032     1.03280
O791        O  0.25734164  0.66441568  0.88376637    -0.79310
C792        C  0.13505302  0.61922875  0.98534149     1.01580
Fe793      Fe  0.87375820  0.43709977  0.08258133     1.65780
Fe794      Fe  0.78024599  0.38993741  0.13369048     1.73250
Fe795      Fe  0.78028276  0.39001938  0.03150276     1.54420
O796        O  0.82197761  0.44680057  0.00360789    -0.83050
O797        O  0.74213606  0.32643749  0.11604920    -0.81350
O798        O  0.87652439  0.48339166  0.04501834    -0.85550
O799        O  0.87878675  0.40407975  0.03493250    -0.80410
O800        O  0.74197439  0.41508600  0.04915648    -0.82180
O801        O  0.82217169  0.37524103  0.16153718    -0.84930
C802        C  0.85339646  0.37417499  0.01225328     0.95840
C803        C  0.85617919  0.48015808  0.01319251     1.03280
O804        O  0.81126414  0.40558521  0.08259704    -1.13910
O805        O  0.81358153  0.45206286  0.15488776    -0.76340
O806        O  0.87846185  0.47501593  0.13017361    -0.79830
O807        O  0.81393164  0.36160830  0.01034875    -0.80520
C808        C  0.85297307  0.47925740  0.15289382     0.94740
O809        O  0.87691653  0.39383734  0.12021610    -0.78470
O810        O  0.73408621  0.40226432  0.11476734    -0.83670
C811        C  0.72334486  0.31079952  0.08283121     0.97370
C812        C  0.72318763  0.41189104  0.08237734     1.03280
O813        O  0.73427591  0.33134052  0.05043515    -0.79310
C814        C  0.85656531  0.37652624  0.15200742     1.01580
Fe815      Fe  0.55708934  0.43670614  0.08261662     1.65780
Fe816      Fe  0.60360517  0.38979841  0.13371805     1.73250
Fe817      Fe  0.60384508  0.39008094  0.03146902     1.54420
O818        O  0.54711796  0.37510955  0.00352794    -0.83050
O819        O  0.66707007  0.41493057  0.11619779    -0.81350
O820        O  0.51079334  0.39344801  0.04484303    -0.85550
O821        O  0.59034770  0.47487391  0.03518037    -0.80410
O822        O  0.57871198  0.32659456  0.04898754    -0.82180
O823        O  0.61857644  0.44649015  0.16171517    -0.84930
C824        C  0.62012356  0.47929697  0.01242883     0.95840
C825        C  0.51390997  0.37623108  0.01303620     1.03280
O826        O  0.58826541  0.40543545  0.08259930    -1.13910
O827        O  0.54146184  0.36119714  0.15479199    -0.76340
O828        O  0.51895242  0.40345055  0.13006927    -0.79830
O829        O  0.63246080  0.45224564  0.01037231    -0.80520
C830        C  0.51448136  0.37362181  0.15278238     0.94740
O831        O  0.60042075  0.48293839  0.12036902    -0.78470
O832        O  0.59102945  0.33125287  0.11468795    -0.83670
C833        C  0.68277305  0.41195868  0.08295759     0.97370
C834        C  0.58170351  0.31087902  0.08221490     1.03280
O835        O  0.66239677  0.40265662  0.05048404    -0.79310
C836        C  0.61755793  0.47975043  0.15219340     1.01580
Fe837      Fe  0.55658613  0.11981887  0.08251061     1.65780
Fe838      Fe  0.60366852  0.21340035  0.03141332     1.73250
Fe839      Fe  0.60367220  0.21332053  0.13362184     1.54420
O840        O  0.54687671  0.17167625  0.16153568    -0.83050
O841        O  0.66715199  0.25157616  0.04901984    -0.81350
O842        O  0.51038459  0.11694346  0.12028412    -0.85550
O843        O  0.58978869  0.11479717  0.12998903    -0.80410
O844        O  0.57868247  0.25171184  0.11600644    -0.82180
O845        O  0.61843659  0.17156282  0.00349871    -0.84930
C846        C  0.61960401  0.14018353  0.15274649     0.95840
C847        C  0.51357230  0.13738058  0.15204023     1.03280
O848        O  0.58806953  0.18234027  0.08251130    -1.13910
O849        O  0.54156684  0.18001722  0.01022989    -0.76340
O850        O  0.51852585  0.11515162  0.03507307    -0.79830
O851        O  0.63203212  0.17961986  0.15477560    -0.80520
C852        C  0.51432866  0.14063999  0.01230586     0.94740
O853        O  0.59971899  0.11668351  0.04468592    -0.78470
O854        O  0.59128307  0.25951016  0.05036108    -0.83670
C855        C  0.68284261  0.27029171  0.08225499     0.97360
C856        C  0.58176666  0.27045440  0.08278083     1.03280
O857        O  0.66236287  0.25928810  0.11468048    -0.79310
C858        C  0.61709850  0.13712216  0.01295114     1.01580
Fe859      Fe  0.93503333  0.37593787  0.24917665     1.65780
Fe860      Fe  0.88795173  0.28235621  0.19808021     1.73250
Fe861      Fe  0.88794419  0.28243681  0.30028872     1.54410
O862        O  0.94473896  0.32408145  0.32820343    -0.83050
O863        O  0.82446767  0.24417916  0.21568501    -0.81350
O864        O  0.98123460  0.37881125  0.28694932    -0.85550
O865        O  0.90183243  0.38096156  0.29665622    -0.80410
O866        O  0.91293364  0.24404426  0.28267610    -0.82180
O867        O  0.87318389  0.32419370  0.17016476    -0.84930
C868        C  0.87201505  0.35557548  0.31941227     0.95840
C869        C  0.97804501  0.35837520  0.31870683     1.03280
O870        O  0.90354901  0.31341647  0.24917784    -1.13910
O871        O  0.95005392  0.31573937  0.17689782    -0.76340
O872        O  0.97309312  0.38060527  0.20173846    -0.79830
O873        O  0.85958413  0.31613842  0.32143954    -0.80520
C874        C  0.97729131  0.35511685  0.17897243     0.94740
O875        O  0.89189983  0.37907266  0.21135207    -0.78470
O876        O  0.90033736  0.23624723  0.21702996    -0.83670
C877        C  0.80877586  0.22546408  0.24892014     0.97370
C878        C  0.90985141  0.22530219  0.24945064     1.03280
O879        O  0.82925408  0.23646906  0.28134644    -0.79310
C880        C  0.87452088  0.35863385  0.17961717     1.01580
Fe881      Fe  0.93452788  0.05904778  0.24928611     1.65780
Fe882      Fe  0.88801268  0.10595771  0.30038756     1.73250
Fe883      Fe  0.88777299  0.10567494  0.19813762     1.54420
O884        O  0.94450202  0.12065221  0.17019812    -0.83050
O885        O  0.82454854  0.08082876  0.28286630    -0.81350
O886        O  0.98082091  0.10229924  0.21150575    -0.85550
O887        O  0.90126293  0.02087414  0.20185593    -0.80410
O888        O  0.91290183  0.16916034  0.21565726    -0.82180
O889        O  0.87303730  0.04926545  0.32838501    -0.84930
C890        C  0.87149219  0.01645549  0.17909948     0.95840
C891        C  0.97770711  0.11952365  0.17970278     1.03280
O892        O  0.90335251  0.09031986  0.24926844    -1.13910
O893        O  0.95015495  0.13455544  0.32146366    -0.76340
O894        O  0.97267029  0.09230979  0.29673312    -0.79830
O895        O  0.85916119  0.04351148  0.17703727    -0.80520
C896        C  0.97713850  0.12213497  0.31944956     0.94740
O897        O  0.89120129  0.01281992  0.28704452    -0.78470
O898        O  0.90059188  0.16450485  0.28135880    -0.83670
C899        C  0.80884421  0.08379588  0.24962502     0.97370
C900        C  0.90991424  0.18487732  0.24888509     1.03280
O901        O  0.82921934  0.09309422  0.21715100    -0.79310
C902        C  0.87405985  0.01600683  0.31886611     1.01580
Fe903      Fe  0.61785838  0.05865570  0.24924583     1.65780
Fe904      Fe  0.71137120  0.10581709  0.30035584     1.73250
Fe905      Fe  0.71133550  0.10573618  0.19816756     1.54420
O906        O  0.66964249  0.04895503  0.17027183    -0.83050
O907        O  0.74948397  0.16931658  0.28271442    -0.81350
O908        O  0.61508971  0.01236686  0.21167678    -0.85550
O909        O  0.61283222  0.09168242  0.20160247    -0.80410
O910        O  0.74964464  0.08067058  0.21582207    -0.82180
O911        O  0.66944886  0.12051761  0.32820215    -0.84930
C912        C  0.63822250  0.12158417  0.17892064     0.95840
C913        C  0.63543783  0.01559930  0.17985330     1.03280
O914        O  0.68035299  0.09016976  0.24926191    -1.13910
O915        O  0.67803300  0.04369231  0.32155460    -0.76340
O916        O  0.61315439  0.02073408  0.29683317    -0.79830
O917        O  0.67768615  0.13414628  0.17701195    -0.80520
C918        C  0.63864247  0.01649510  0.31955666     0.94740
O919        O  0.61469873  0.10191338  0.28688608    -0.78560
O920        O  0.75752874  0.09348687  0.28143381    -0.83670
C921        C  0.76827389  0.18495568  0.24949621     0.97360
C922        C  0.76842931  0.08386285  0.24904365     1.03280
O923        O  0.75734164  0.16441566  0.21709971    -0.79310
C924        C  0.63505303  0.11922876  0.31867482     1.01580
Fe925      Fe  0.87375820  0.43709976  0.41591465     1.65780
Fe926      Fe  0.78024599  0.38993741  0.46702379     1.73250
Fe927      Fe  0.78028276  0.39001937  0.36483608     1.54420
O928        O  0.82197762  0.44680056  0.33694121    -0.83050
O929        O  0.74213606  0.32643749  0.44938252    -0.81350
O930        O  0.87652439  0.48339166  0.37835166    -0.85550
O931        O  0.87878674  0.40407975  0.36826582    -0.80410
O932        O  0.74197439  0.41508599  0.38248979    -0.82180
O933        O  0.82217168  0.37524103  0.49487050    -0.84930
C934        C  0.85339645  0.37417498  0.34558661     0.95840
C935        C  0.85617919  0.48015807  0.34652583     1.03280
O936        O  0.81126414  0.40558520  0.41593036    -1.13910
O937        O  0.81358153  0.45206286  0.48822108    -0.76340
O938        O  0.87846185  0.47501593  0.46350693    -0.79830
O939        O  0.81393164  0.36160829  0.34368208    -0.80520
C940        C  0.85297306  0.47925740  0.48622715     0.94740
O941        O  0.87691652  0.39383734  0.45354942    -0.78470
O942        O  0.73408621  0.40226432  0.44810066    -0.83670
C943        C  0.72334485  0.31079952  0.41616453     0.97370
C944        C  0.72318763  0.41189103  0.41571065     1.03280
O945        O  0.73427590  0.33134052  0.38376846    -0.79310
C946        C  0.85656530  0.37652625  0.48534074     1.01580
Fe947      Fe  0.55708934  0.43670614  0.41594994     1.65780
Fe948      Fe  0.60360518  0.38979842  0.46705138     1.73250
Fe949      Fe  0.60384507  0.39008093  0.36480235     1.54420
O950        O  0.54711794  0.37510954  0.33686127    -0.83050
O951        O  0.66707008  0.41493058  0.44953110    -0.81350
O952        O  0.51079333  0.39344800  0.37817637    -0.85550
O953        O  0.59034768  0.47487389  0.36851368    -0.80410
O954        O  0.57871196  0.32659454  0.38232087    -0.82180
O955        O  0.61857645  0.44649017  0.49504849    -0.84930
C956        C  0.62012355  0.47929694  0.34576214     0.95840
C957        C  0.51390995  0.37623106  0.34636954     1.03280
O958        O  0.58826541  0.40543544  0.41593262    -1.13910
O959        O  0.54146185  0.36119715  0.48812532    -0.76340
O960        O  0.51895244  0.40345056  0.46340261    -0.79830
O961        O  0.63246079  0.45224562  0.34370563    -0.80520
C962        C  0.51448138  0.37362182  0.48611572     0.94740
O963        O  0.60042076  0.48293841  0.45370234    -0.78470
O964        O  0.59102946  0.33125287  0.44802128    -0.83670
C965        C  0.68277305  0.41195868  0.41629091     0.97370
C966        C  0.58170351  0.31087901  0.41554824     1.03280
O967        O  0.66239676  0.40265660  0.38381736    -0.79310
C968        C  0.61755794  0.47975044  0.48552671     1.01580
Fe969      Fe  0.55658614  0.11981886  0.41584394     1.65780
Fe970      Fe  0.60366852  0.21340034  0.36474665     1.73250
Fe971      Fe  0.60367220  0.21332053  0.46695517     1.54420
O972        O  0.54687671  0.17167624  0.49486900    -0.83050
O973        O  0.66715199  0.25157615  0.38235316    -0.81350
O974        O  0.51038458  0.11694346  0.45361743    -0.85550
O975        O  0.58978868  0.11479717  0.46332237    -0.80410
O976        O  0.57868246  0.25171183  0.44933977    -0.82180
O977        O  0.61843657  0.17156281  0.33683204    -0.84930
C978        C  0.61960401  0.14018353  0.48607983     0.95840
C979        C  0.51357229  0.13738057  0.48537354     1.03280
O980        O  0.58806953  0.18234027  0.41584463    -1.13910
O981        O  0.54156683  0.18001721  0.34356323    -0.76340
O982        O  0.51852587  0.11515161  0.36840638    -0.79830
O983        O  0.63203213  0.17961987  0.48810892    -0.80520
C984        C  0.51432866  0.14063998  0.34563919     0.94740
O985        O  0.59971902  0.11668352  0.37801927    -0.78470
O986        O  0.59128307  0.25951016  0.38369441    -0.83670
C987        C  0.68284260  0.27029171  0.41558831     0.97360
C988        C  0.58176665  0.27045440  0.41611417     1.03280
O989        O  0.66236287  0.25928811  0.44801380    -0.79310
C990        C  0.61709851  0.13712217  0.34628448     1.01580
Fe991      Fe  0.93503332  0.37593788  0.58250998     1.65780
Fe992      Fe  0.88795174  0.28235622  0.53141355     1.73250
Fe993      Fe  0.88794419  0.28243682  0.63362206     1.54410
O994        O  0.94473897  0.32408145  0.66153676    -0.83050
O995        O  0.82446767  0.24417917  0.54901834    -0.81350
O996        O  0.98123459  0.37881127  0.62028266    -0.85550
O997        O  0.90183242  0.38096157  0.62998956    -0.80410
O998        O  0.91293363  0.24404426  0.61600943    -0.82180
O999        O  0.87318390  0.32419371  0.50349809    -0.84930
C1000       C  0.87201505  0.35557550  0.65274561     0.95840
C1001       C  0.97804502  0.35837521  0.65204016     1.03280
O1002       O  0.90354901  0.31341648  0.58251117    -1.13910
O1003       O  0.95005393  0.31573938  0.51023117    -0.76340
O1004       O  0.97309312  0.38060529  0.53507180    -0.79830
O1005       O  0.85958414  0.31613843  0.65477289    -0.80520
C1006       C  0.97729132  0.35511686  0.51230578     0.94740
O1007       O  0.89189983  0.37907267  0.54468540    -0.78470
O1008       O  0.90033737  0.23624724  0.55036329    -0.83670
C1009       C  0.80877586  0.22546410  0.58225347     0.97370
C1010       C  0.90985141  0.22530220  0.58278398     1.03280
O1011       O  0.82925407  0.23646907  0.61467978    -0.79310
C1012       C  0.87452088  0.35863385  0.51295049     1.01580
Fe1013     Fe  0.93452788  0.05904778  0.58261945     1.65780
Fe1014     Fe  0.88801269  0.10595772  0.63372090     1.73250
Fe1015     Fe  0.88777298  0.10567493  0.53147096     1.54420
O1016       O  0.94450202  0.12065223  0.50353145    -0.83050
O1017       O  0.82454855  0.08082879  0.61619964    -0.81350
O1018       O  0.98082089  0.10229921  0.54483906    -0.85550
O1019       O  0.90126290  0.02087412  0.53518928    -0.80410
O1020       O  0.91290181  0.16916034  0.54899060    -0.82180
O1021       O  0.87303730  0.04926546  0.66171836    -0.84930
C1022       C  0.87149218  0.01645548  0.51243282     0.95840
C1023       C  0.97770710  0.11952364  0.51303610     1.03280
O1024       O  0.90335251  0.09031986  0.58260178    -1.13910
O1025       O  0.95015496  0.13455544  0.65479700    -0.76340
O1026       O  0.97267031  0.09230981  0.63006644    -0.79830
O1027       O  0.85916120  0.04351148  0.51037059    -0.80520
C1028       C  0.97713852  0.12213499  0.65278289     0.94740
O1029       O  0.89120131  0.01281993  0.62037788    -0.78470
O1030       O  0.90059190  0.16450486  0.61469214    -0.83670
C1031       C  0.80884421  0.08379588  0.58295837     0.97370
C1032       C  0.90991424  0.18487733  0.58221843     1.03280
O1033       O  0.82921933  0.09309420  0.55048434    -0.79310
C1034       C  0.87405986  0.01600685  0.65219947     1.01580
Fe1035     Fe  0.61785838  0.05865569  0.58257916     1.65780
Fe1036     Fe  0.71137120  0.10581710  0.63368918     1.73250
Fe1037     Fe  0.71133551  0.10573619  0.53150090     1.54420
O1038       O  0.66964251  0.04895503  0.50360515    -0.83050
O1039       O  0.74948397  0.16931659  0.61604775    -0.81350
O1040       O  0.61508971  0.01236687  0.54501008    -0.85550
O1041       O  0.61283222  0.09168244  0.53493582    -0.80410
O1042       O  0.74964465  0.08067060  0.54915541    -0.82180
O1043       O  0.66944887  0.12051763  0.66153547    -0.84930
C1044       C  0.63822250  0.12158417  0.51225397     0.95840
C1045       C  0.63543784  0.01559930  0.51318661     1.03280
O1046       O  0.68035299  0.09016977  0.58259524    -1.13910
O1047       O  0.67803300  0.04369233  0.65488795    -0.76340
O1048       O  0.61315439  0.02073405  0.63016647    -0.79830
O1049       O  0.67768615  0.13414628  0.51034528    -0.80520
C1050       C  0.63864247  0.01649510  0.65288998     0.94740
O1051       O  0.61469870  0.10191334  0.62021943    -0.78560
O1052       O  0.75752874  0.09348687  0.61476715    -0.83670
C1053       C  0.76827389  0.18495569  0.58282954     0.97360
C1054       C  0.76842931  0.08386286  0.58237700     1.03280
O1055       O  0.75734164  0.16441567  0.55043304    -0.79310
C1056       C  0.63505302  0.11922875  0.65200816     1.01580
Fe1057     Fe  0.87375820  0.43709977  0.74924800     1.65780
Fe1058     Fe  0.78024599  0.38993742  0.80035714     1.73250
Fe1059     Fe  0.78028276  0.39001938  0.69816943     1.54420
O1060       O  0.82197762  0.44680057  0.67027456    -0.83050
O1061       O  0.74213607  0.32643749  0.78271587    -0.81350
O1062       O  0.87652439  0.48339167  0.71168501    -0.85550
O1063       O  0.87878674  0.40407976  0.70159916    -0.80410
O1064       O  0.74197439  0.41508600  0.71582314    -0.82180
O1065       O  0.82217169  0.37524105  0.82820386    -0.84930
C1066       C  0.85339645  0.37417499  0.67891995     0.95840
C1067       C  0.85617919  0.48015808  0.67985918     1.03280
O1068       O  0.81126414  0.40558521  0.74926371    -1.13910
O1069       O  0.81358152  0.45206287  0.82155442    -0.76340
O1070       O  0.87846184  0.47501593  0.79684029    -0.79830
O1071       O  0.81393164  0.36160830  0.67701543    -0.80520
C1072       C  0.85297306  0.47925741  0.81956049     0.94740
O1073       O  0.87691652  0.39383734  0.78688277    -0.78470
O1074       O  0.73408620  0.40226432  0.78143400    -0.83670
C1075       C  0.72334486  0.31079953  0.74949788     0.97370
C1076       C  0.72318762  0.41189104  0.74904400     1.03280
O1077       O  0.73427590  0.33134053  0.71710182    -0.79310
C1078       C  0.85656530  0.37652626  0.81867409     1.01580
Fe1079     Fe  0.55708935  0.43670615  0.74928328     1.65780
Fe1080     Fe  0.60360518  0.38979842  0.80038472     1.73250
Fe1081     Fe  0.60384507  0.39008093  0.69813569     1.54420
O1082       O  0.54711794  0.37510953  0.67019462    -0.83050
O1083       O  0.66707007  0.41493058  0.78286444    -0.81350
O1084       O  0.51079334  0.39344802  0.71150970    -0.85550
O1085       O  0.59034770  0.47487391  0.70184702    -0.80410
O1086       O  0.57871197  0.32659454  0.71565421    -0.82180
O1087       O  0.61857644  0.44649016  0.82838184    -0.84930
C1088       C  0.62012356  0.47929695  0.67909548     0.95840
C1089       C  0.51390996  0.37623108  0.67970287     1.03280
O1090       O  0.58826541  0.40543545  0.74926596    -1.13910
O1091       O  0.54146185  0.36119715  0.82145865    -0.76340
O1092       O  0.51895244  0.40345057  0.79673594    -0.79830
O1093       O  0.63246078  0.45224562  0.67703896    -0.80520
C1094       C  0.51448137  0.37362183  0.81944905     0.94740
O1095       O  0.60042077  0.48293841  0.78703568    -0.78470
O1096       O  0.59102946  0.33125287  0.78135462    -0.83670
C1097       C  0.68277305  0.41195868  0.74962425     0.97370
C1098       C  0.58170351  0.31087901  0.74888158     1.03280
O1099       O  0.66239676  0.40265661  0.71715070    -0.79310
C1100       C  0.61755794  0.47975044  0.81886006     1.01580
Fe1101     Fe  0.55658612  0.11981887  0.74917728     1.65780
Fe1102     Fe  0.60366853  0.21340035  0.69807999     1.73250
Fe1103     Fe  0.60367220  0.21332053  0.80028851     1.54420
O1104       O  0.54687672  0.17167624  0.82820235    -0.83050
O1105       O  0.66715199  0.25157616  0.71568651    -0.81350
O1106       O  0.51038458  0.11694347  0.78695077    -0.85550
O1107       O  0.58978867  0.11479716  0.79665570    -0.80410
O1108       O  0.57868247  0.25171184  0.78267311    -0.82180
O1109       O  0.61843659  0.17156282  0.67016538    -0.84930
C1110       C  0.61960400  0.14018352  0.81941316     0.95840
C1111       C  0.51357229  0.13738058  0.81870689     1.03280
O1112       O  0.58806953  0.18234027  0.74917797    -1.13910
O1113       O  0.54156684  0.18001722  0.67689656    -0.76340
O1114       O  0.51852586  0.11515162  0.70173972    -0.79830
O1115       O  0.63203213  0.17961986  0.82144226    -0.80520
C1116       C  0.51432866  0.14063999  0.67897252     0.94740
O1117       O  0.59971899  0.11668351  0.71135259    -0.78470
O1118       O  0.59128307  0.25951016  0.71702775    -0.83670
C1119       C  0.68284261  0.27029171  0.74892166     0.97360
C1120       C  0.58176666  0.27045440  0.74944751     1.03280
O1121       O  0.66236287  0.25928811  0.78134715    -0.79310
C1122       C  0.61709850  0.13712216  0.67961781     1.01580
Fe1123     Fe  0.93503332  0.37593789  0.91584332     1.65780
Fe1124     Fe  0.88795174  0.28235622  0.86474688     1.73250
Fe1125     Fe  0.88794419  0.28243682  0.96695539     1.54410
O1126       O  0.94473897  0.32408147  0.99487010    -0.83050
O1127       O  0.82446767  0.24417918  0.88235168    -0.81350
O1128       O  0.98123461  0.37881126  0.95361598    -0.85550
O1129       O  0.90183244  0.38096157  0.96332291    -0.80410
O1130       O  0.91293365  0.24404428  0.94934277    -0.82180
O1131       O  0.87318391  0.32419373  0.83683143    -0.84930
C1132       C  0.87201505  0.35557549  0.98607894     0.95840
C1133       C  0.97804502  0.35837522  0.98537349     1.03280
O1134       O  0.90354901  0.31341649  0.91584451    -1.13910
O1135       O  0.95005393  0.31573938  0.84356451    -0.76340
O1136       O  0.97309310  0.38060529  0.86840512    -0.79830
O1137       O  0.85958412  0.31613843  0.98810621    -0.80520
C1138       C  0.97729131  0.35511687  0.84563910     0.94740
O1139       O  0.89189981  0.37907266  0.87801876    -0.78470
O1140       O  0.90033736  0.23624724  0.88369663    -0.83670
C1141       C  0.80877586  0.22546410  0.91558681     0.97370
C1142       C  0.90985141  0.22530221  0.91611732     1.03280
O1143       O  0.82925408  0.23646907  0.94801311    -0.79310
C1144       C  0.87452088  0.35863386  0.84628384     1.01580
Fe1145     Fe  0.93452788  0.05904779  0.91595279     1.65780
Fe1146     Fe  0.88801269  0.10595773  0.96705424     1.73250
Fe1147     Fe  0.88777299  0.10567495  0.86480430     1.54420
O1148       O  0.94450202  0.12065224  0.83686479    -0.83050
O1149       O  0.82454854  0.08082879  0.94953298    -0.81350
O1150       O  0.98082090  0.10229923  0.87817241    -0.85550
O1151       O  0.90126291  0.02087413  0.86852262    -0.80410
O1152       O  0.91290182  0.16916035  0.88232394    -0.82180
O1153       O  0.87303729  0.04926546  0.99505169    -0.84930
C1154       C  0.87149218  0.01645549  0.84576616     0.95840
C1155       C  0.97770710  0.11952366  0.84636944     1.03280
O1156       O  0.90335251  0.09031987  0.91593512    -1.13910
O1157       O  0.95015495  0.13455544  0.98813035    -0.76340
O1158       O  0.97267030  0.09230982  0.96339978    -0.79830
O1159       O  0.85916121  0.04351149  0.84370393    -0.80520
C1160       C  0.97713851  0.12213499  0.98611623     0.94740
O1161       O  0.89120131  0.01281994  0.95371121    -0.78470
O1162       O  0.90059190  0.16450487  0.94802548    -0.83670
C1163       C  0.80884421  0.08379589  0.91629170     0.97370
C1164       C  0.90991424  0.18487734  0.91555177     1.03280
O1165       O  0.82921933  0.09309422  0.88381767    -0.79310
C1166       C  0.87405985  0.01600685  0.98553280     1.01580
Fe1167     Fe  0.61785838  0.05865569  0.91591250     1.65780
Fe1168     Fe  0.71137120  0.10581710  0.96702251     1.73250
Fe1169     Fe  0.71133551  0.10573619  0.86483423     1.54420
O1170       O  0.66964251  0.04895504  0.83693849    -0.83050
O1171       O  0.74948398  0.16931660  0.94938108    -0.81350
O1172       O  0.61508973  0.01236686  0.87834343    -0.85550
O1173       O  0.61283222  0.09168242  0.86826914    -0.80410
O1174       O  0.74964465  0.08067061  0.88248874    -0.82180
O1175       O  0.66944886  0.12051764  0.99486880    -0.84930
C1176       C  0.63822249  0.12158416  0.84558731     0.95840
C1177       C  0.63543785  0.01559931  0.84651996     1.03280
O1178       O  0.68035299  0.09016977  0.91592858    -1.13910
O1179       O  0.67803300  0.04369233  0.98822129    -0.76340
O1180       O  0.61315439  0.02073406  0.96349982    -0.79830
O1181       O  0.67768615  0.13414628  0.84367862    -0.80520
C1182       C  0.63864247  0.01649511  0.98622333     0.94740
O1183       O  0.61469871  0.10191335  0.95355276    -0.78560
O1184       O  0.75752873  0.09348687  0.94810049    -0.83670
C1185       C  0.76827389  0.18495569  0.91616287     0.97360
C1186       C  0.76842931  0.08386287  0.91571033     1.03280
O1187       O  0.75734164  0.16441568  0.88376638    -0.79310
C1188       C  0.63505302  0.11922875  0.98534149     1.01580
Fe1189     Fe  0.87375819  0.93709976  0.08258133     1.65780
Fe1190     Fe  0.78024598  0.88993741  0.13369048     1.73250
Fe1191     Fe  0.78028275  0.89001938  0.03150276     1.54420
O1192       O  0.82197761  0.94680057  0.00360790    -0.83050
O1193       O  0.74213606  0.82643749  0.11604920    -0.81350
O1194       O  0.87652439  0.98339166  0.04501834    -0.85550
O1195       O  0.87878673  0.90407975  0.03493250    -0.80410
O1196       O  0.74197438  0.91508600  0.04915648    -0.82180
O1197       O  0.82217168  0.87524103  0.16153718    -0.84930
C1198       C  0.85339644  0.87417499  0.01225328     0.95840
C1199       C  0.85617918  0.98015808  0.01319251     1.03280
O1200       O  0.81126413  0.90558520  0.08259704    -1.13910
O1201       O  0.81358152  0.95206286  0.15488775    -0.76340
O1202       O  0.87846184  0.97501592  0.13017361    -0.79830
O1203       O  0.81393163  0.86160830  0.01034875    -0.80520
C1204       C  0.85297306  0.97925740  0.15289382     0.94740
O1205       O  0.87691651  0.89383733  0.12021609    -0.78470
O1206       O  0.73408620  0.90226432  0.11476734    -0.83670
C1207       C  0.72334484  0.81079952  0.08283121     0.97370
C1208       C  0.72318762  0.91189104  0.08237734     1.03280
O1209       O  0.73427589  0.83134052  0.05043515    -0.79310
C1210       C  0.85656530  0.87652624  0.15200742     1.01580
Fe1211     Fe  0.55708934  0.93670614  0.08261662     1.65780
Fe1212     Fe  0.60360517  0.88979841  0.13371806     1.73250
Fe1213     Fe  0.60384507  0.89008093  0.03146903     1.54420
O1214       O  0.54711795  0.87510954  0.00352795    -0.83050
O1215       O  0.66707007  0.91493058  0.11619779    -0.81350
O1216       O  0.51079333  0.89344801  0.04484304    -0.85550
O1217       O  0.59034769  0.97487390  0.03518037    -0.80410
O1218       O  0.57871196  0.82659455  0.04898755    -0.82180
O1219       O  0.61857643  0.94649015  0.16171518    -0.84930
C1220       C  0.62012355  0.97929696  0.01242883     0.95840
C1221       C  0.51390996  0.87623107  0.01303620     1.03280
O1222       O  0.58826540  0.90543544  0.08259930    -1.13910
O1223       O  0.54146184  0.86119714  0.15479199    -0.76340
O1224       O  0.51895242  0.90345055  0.13006928    -0.79830
O1225       O  0.63246079  0.95224563  0.01037231    -0.80520
C1226       C  0.51448136  0.87362181  0.15278238     0.94740
O1227       O  0.60042075  0.98293840  0.12036903    -0.78470
O1228       O  0.59102945  0.83125287  0.11468796    -0.83670
C1229       C  0.68277304  0.91195868  0.08295760     0.97370
C1230       C  0.58170350  0.81087901  0.08221492     1.03280
O1231       O  0.66239675  0.90265661  0.05048405    -0.79310
C1232       C  0.61755792  0.97975043  0.15219340     1.01580
Fe1233     Fe  0.55658612  0.61981886  0.08251061     1.65780
Fe1234     Fe  0.60366851  0.71340035  0.03141332     1.73250
Fe1235     Fe  0.60367219  0.71332053  0.13362185     1.54420
O1236       O  0.54687671  0.67167624  0.16153569    -0.83050
O1237       O  0.66715197  0.75157616  0.04901984    -0.81350
O1238       O  0.51038458  0.61694346  0.12028413    -0.85550
O1239       O  0.58978868  0.61479716  0.12998902    -0.80410
O1240       O  0.57868247  0.75171184  0.11600645    -0.82180
O1241       O  0.61843658  0.67156282  0.00349871    -0.84930
C1242       C  0.61960401  0.64018352  0.15274649     0.95840
C1243       C  0.51357229  0.63738057  0.15204024     1.03280
O1244       O  0.58806952  0.68234027  0.08251130    -1.13910
O1245       O  0.54156682  0.68001721  0.01022990    -0.76340
O1246       O  0.51852584  0.61515161  0.03507307    -0.79830
O1247       O  0.63203212  0.67961986  0.15477560    -0.80520
C1248       C  0.51432864  0.64063998  0.01230587     0.94740
O1249       O  0.59971898  0.61668351  0.04468592    -0.78470
O1250       O  0.59128305  0.75951016  0.05036109    -0.83670
C1251       C  0.68284260  0.77029171  0.08225499     0.97360
C1252       C  0.58176664  0.77045440  0.08278085     1.03280
O1253       O  0.66236287  0.75928810  0.11468048    -0.79310
C1254       C  0.61709849  0.63712217  0.01295114     1.01580
Fe1255     Fe  0.93503331  0.87593787  0.24917665     1.65780
Fe1256     Fe  0.88795173  0.78235620  0.19808021     1.73250
Fe1257     Fe  0.88794418  0.78243680  0.30028872     1.54410
O1258       O  0.94473895  0.82408145  0.32820343    -0.83050
O1259       O  0.82446766  0.74417916  0.21568500    -0.81350
O1260       O  0.98123459  0.87881124  0.28694931    -0.85550
O1261       O  0.90183243  0.88096155  0.29665623    -0.80410
O1262       O  0.91293364  0.74404426  0.28267610    -0.82180
O1263       O  0.87318390  0.82419370  0.17016476    -0.84930
C1264       C  0.87201504  0.85557548  0.31941227     0.95840
C1265       C  0.97804501  0.85837520  0.31870682     1.03280
O1266       O  0.90354900  0.81341647  0.24917783    -1.13910
O1267       O  0.95005392  0.81573937  0.17689783    -0.76340
O1268       O  0.97309310  0.88060527  0.20173846    -0.79830
O1269       O  0.85958411  0.81613841  0.32143954    -0.80520
C1270       C  0.97729131  0.85511685  0.17897244     0.94740
O1271       O  0.89189981  0.87907265  0.21135208    -0.78470
O1272       O  0.90033735  0.73624722  0.21702996    -0.83670
C1273       C  0.80877585  0.72546408  0.24892014     0.97370
C1274       C  0.90985140  0.72530219  0.24945065     1.03280
O1275       O  0.82925407  0.73646905  0.28134644    -0.79310
C1276       C  0.87452087  0.85863384  0.17961717     1.01580
Fe1277     Fe  0.93452789  0.55904779  0.24928611     1.65780
Fe1278     Fe  0.88801269  0.60595772  0.30038756     1.73250
Fe1279     Fe  0.88777299  0.60567494  0.19813762     1.54420
O1280       O  0.94450202  0.62065221  0.17019812    -0.83050
O1281       O  0.82454854  0.58082876  0.28286630    -0.81350
O1282       O  0.98082091  0.60229924  0.21150575    -0.85550
O1283       O  0.90126293  0.52087415  0.20185593    -0.80410
O1284       O  0.91290183  0.66916034  0.21565726    -0.82180
O1285       O  0.87303731  0.54926545  0.32838501    -0.84930
C1286       C  0.87149219  0.51645549  0.17909949     0.95840
C1287       C  0.97770711  0.61952365  0.17970278     1.03280
O1288       O  0.90335251  0.59031986  0.24926844    -1.13910
O1289       O  0.95015496  0.63455544  0.32146366    -0.76340
O1290       O  0.97267029  0.59230979  0.29673312    -0.79830
O1291       O  0.85916120  0.54351148  0.17703727    -0.80520
C1292       C  0.97713851  0.62213498  0.31944956     0.94740
O1293       O  0.89120130  0.51281992  0.28704452    -0.78470
O1294       O  0.90059188  0.66450485  0.28135880    -0.83670
C1295       C  0.80884422  0.58379588  0.24962503     0.97370
C1296       C  0.90991424  0.68487733  0.24888509     1.03280
O1297       O  0.82921934  0.59309422  0.21715100    -0.79310
C1298       C  0.87405986  0.51600684  0.31886611     1.01580
Fe1299     Fe  0.61785838  0.55865569  0.24924583     1.65780
Fe1300     Fe  0.71137119  0.60581709  0.30035584     1.73250
Fe1301     Fe  0.71133550  0.60573618  0.19816756     1.54420
O1302       O  0.66964250  0.54895502  0.17027183    -0.83050
O1303       O  0.74948397  0.66931658  0.28271441    -0.81350
O1304       O  0.61508972  0.51236686  0.21167677    -0.85550
O1305       O  0.61283222  0.59168242  0.20160247    -0.80410
O1306       O  0.74964465  0.58067059  0.21582207    -0.82180
O1307       O  0.66944886  0.62051761  0.32820214    -0.84930
C1308       C  0.63822249  0.62158416  0.17892063     0.95840
C1309       C  0.63543784  0.51559929  0.17985329     1.03280
O1310       O  0.68035299  0.59016976  0.24926190    -1.13910
O1311       O  0.67803300  0.54369231  0.32155461    -0.76340
O1312       O  0.61315439  0.52073407  0.29683316    -0.79830
O1313       O  0.67768615  0.63414627  0.17701195    -0.80520
C1314       C  0.63864247  0.51649510  0.31955665     0.94740
O1315       O  0.61469872  0.60191336  0.28688608    -0.78560
O1316       O  0.75752874  0.59348686  0.28143381    -0.83670
C1317       C  0.76827388  0.68495568  0.24949620     0.97360
C1318       C  0.76842931  0.58386285  0.24904366     1.03280
O1319       O  0.75734163  0.66441566  0.21709971    -0.79310
C1320       C  0.63505302  0.61922875  0.31867482     1.01580
Fe1321     Fe  0.87375819  0.93709976  0.41591465     1.65780
Fe1322     Fe  0.78024598  0.88993740  0.46702379     1.73250
Fe1323     Fe  0.78028275  0.89001937  0.36483608     1.54420
O1324       O  0.82197761  0.94680055  0.33694121    -0.83050
O1325       O  0.74213605  0.82643748  0.44938252    -0.81350
O1326       O  0.87652438  0.98339165  0.37835166    -0.85550
O1327       O  0.87878674  0.90407974  0.36826582    -0.80410
O1328       O  0.74197439  0.91508599  0.38248979    -0.82180
O1329       O  0.82217167  0.87524102  0.49487050    -0.84930
C1330       C  0.85339645  0.87417498  0.34558661     0.95840
C1331       C  0.85617918  0.98015807  0.34652583     1.03280
O1332       O  0.81126413  0.90558520  0.41593036    -1.13910
O1333       O  0.81358151  0.95206284  0.48822108    -0.76340
O1334       O  0.87846184  0.97501592  0.46350693    -0.79830
O1335       O  0.81393163  0.86160829  0.34368208    -0.80520
C1336       C  0.85297305  0.97925739  0.48622715     0.94740
O1337       O  0.87691652  0.89383734  0.45354942    -0.78470
O1338       O  0.73408620  0.90226431  0.44810065    -0.83670
C1339       C  0.72334484  0.81079951  0.41616452     0.97370
C1340       C  0.72318762  0.91189103  0.41571065     1.03280
O1341       O  0.73427589  0.83134051  0.38376846    -0.79310
C1342       C  0.85656530  0.87652624  0.48534074     1.01580
Fe1343     Fe  0.55708934  0.93670613  0.41594994     1.65780
Fe1344     Fe  0.60360517  0.88979841  0.46705137     1.73250
Fe1345     Fe  0.60384507  0.89008093  0.36480234     1.54420
O1346       O  0.54711794  0.87510954  0.33686126    -0.83050
O1347       O  0.66707007  0.91493057  0.44953110    -0.81350
O1348       O  0.51079332  0.89344799  0.37817637    -0.85550
O1349       O  0.59034768  0.97487389  0.36851368    -0.80410
O1350       O  0.57871196  0.82659454  0.38232086    -0.82180
O1351       O  0.61857644  0.94649016  0.49504849    -0.84930
C1352       C  0.62012355  0.97929695  0.34576214     0.95840
C1353       C  0.51390995  0.87623107  0.34636953     1.03280
O1354       O  0.58826541  0.90543544  0.41593262    -1.13910
O1355       O  0.54146184  0.86119715  0.48812532    -0.76340
O1356       O  0.51895243  0.90345055  0.46340261    -0.79830
O1357       O  0.63246079  0.95224563  0.34370563    -0.80520
C1358       C  0.51448137  0.87362182  0.48611571     0.94740
O1359       O  0.60042076  0.98293840  0.45370234    -0.78470
O1360       O  0.59102945  0.83125287  0.44802127    -0.83670
C1361       C  0.68277304  0.91195867  0.41629090     0.97370
C1362       C  0.58170350  0.81087901  0.41554823     1.03280
O1363       O  0.66239675  0.90265660  0.38381736    -0.79310
C1364       C  0.61755793  0.97975044  0.48552671     1.01580
Fe1365     Fe  0.55658613  0.61981886  0.41584394     1.65780
Fe1366     Fe  0.60366851  0.71340033  0.36474664     1.73250
Fe1367     Fe  0.60367219  0.71332053  0.46695517     1.54420
O1368       O  0.54687670  0.67167624  0.49486900    -0.83050
O1369       O  0.66715197  0.75157614  0.38235316    -0.81350
O1370       O  0.51038458  0.61694345  0.45361744    -0.85550
O1371       O  0.58978868  0.61479716  0.46332236    -0.80410
O1372       O  0.57868246  0.75171183  0.44933976    -0.82180
O1373       O  0.61843657  0.67156280  0.33683203    -0.84930
C1374       C  0.61960401  0.64018353  0.48607983     0.95840
C1375       C  0.51357229  0.63738057  0.48537355     1.03280
O1376       O  0.58806952  0.68234026  0.41584462    -1.13910
O1377       O  0.54156682  0.68001720  0.34356323    -0.76340
O1378       O  0.51852585  0.61515160  0.36840639    -0.79830
O1379       O  0.63203212  0.67961987  0.48810892    -0.80520
C1380       C  0.51432864  0.64063997  0.34563919     0.94740
O1381       O  0.59971900  0.61668351  0.37801926    -0.78470
O1382       O  0.59128306  0.75951015  0.38369440    -0.83670
C1383       C  0.68284259  0.77029170  0.41558831     0.97360
C1384       C  0.58176664  0.77045439  0.41611416     1.03280
O1385       O  0.66236286  0.75928810  0.44801380    -0.79310
C1386       C  0.61709850  0.63712216  0.34628447     1.01580
Fe1387     Fe  0.93503332  0.87593789  0.58250998     1.65780
Fe1388     Fe  0.88795173  0.78235622  0.53141355     1.73250
Fe1389     Fe  0.88794419  0.78243682  0.63362206     1.54410
O1390       O  0.94473897  0.82408145  0.66153677    -0.83050
O1391       O  0.82446768  0.74417917  0.54901835    -0.81350
O1392       O  0.98123459  0.87881127  0.62028267    -0.85550
O1393       O  0.90183242  0.88096157  0.62998955    -0.80410
O1394       O  0.91293363  0.74404426  0.61600944    -0.82180
O1395       O  0.87318389  0.82419370  0.50349810    -0.84930
C1396       C  0.87201505  0.85557550  0.65274560     0.95840
C1397       C  0.97804502  0.85837522  0.65204017     1.03280
O1398       O  0.90354901  0.81341649  0.58251117    -1.13910
O1399       O  0.95005392  0.81573938  0.51023116    -0.76340
O1400       O  0.97309313  0.88060528  0.53507181    -0.79830
O1401       O  0.85958414  0.81613844  0.65477289    -0.80520
C1402       C  0.97729132  0.85511686  0.51230577     0.94740
O1403       O  0.89189984  0.87907267  0.54468540    -0.78470
O1404       O  0.90033737  0.73624724  0.55036329    -0.83670
C1405       C  0.80877586  0.72546410  0.58225348     0.97370
C1406       C  0.90985141  0.72530220  0.58278398     1.03280
O1407       O  0.82925407  0.73646908  0.61467979    -0.79310
C1408       C  0.87452087  0.85863385  0.51295049     1.01580
Fe1409     Fe  0.93452789  0.55904778  0.58261945     1.65780
Fe1410     Fe  0.88801269  0.60595772  0.63372089     1.73250
Fe1411     Fe  0.88777300  0.60567494  0.53147095     1.54420
O1412       O  0.94450203  0.62065223  0.50353146    -0.83050
O1413       O  0.82454854  0.58082878  0.61619963    -0.81350
O1414       O  0.98082090  0.60229922  0.54483907    -0.85550
O1415       O  0.90126291  0.52087412  0.53518928    -0.80410
O1416       O  0.91290182  0.66916035  0.54899060    -0.82180
O1417       O  0.87303729  0.54926546  0.66171835    -0.84930
C1418       C  0.87149219  0.51645549  0.51243282     0.95840
C1419       C  0.97770711  0.61952365  0.51303610     1.03280
O1420       O  0.90335252  0.59031987  0.58260178    -1.13910
O1421       O  0.95015495  0.63455544  0.65479701    -0.76340
O1422       O  0.97267031  0.59230982  0.63006644    -0.79830
O1423       O  0.85916122  0.54351149  0.51037059    -0.80520
C1424       C  0.97713852  0.62213499  0.65278289     0.94740
O1425       O  0.89120132  0.51281994  0.62037788    -0.78470
O1426       O  0.90059190  0.66450486  0.61469214    -0.83670
C1427       C  0.80884422  0.58379588  0.58295836     0.97370
C1428       C  0.90991424  0.68487733  0.58221843     1.03280
O1429       O  0.82921934  0.59309421  0.55048433    -0.79310
C1430       C  0.87405986  0.51600685  0.65219946     1.01580
Fe1431     Fe  0.61785839  0.55865570  0.58257916     1.65780
Fe1432     Fe  0.71137120  0.60581710  0.63368918     1.73250
Fe1433     Fe  0.71133551  0.60573619  0.53150089     1.54420
O1434       O  0.66964251  0.54895504  0.50360515    -0.83050
O1435       O  0.74948398  0.66931659  0.61604775    -0.81350
O1436       O  0.61508972  0.51236687  0.54501009    -0.85550
O1437       O  0.61283223  0.59168243  0.53493581    -0.80410
O1438       O  0.74964466  0.58067060  0.54915540    -0.82180
O1439       O  0.66944886  0.62051762  0.66153547    -0.84930
C1440       C  0.63822250  0.62158417  0.51225397     0.95840
C1441       C  0.63543785  0.51559931  0.51318661     1.03280
O1442       O  0.68035299  0.59016977  0.58259524    -1.13910
O1443       O  0.67803300  0.54369231  0.65488794    -0.76340
O1444       O  0.61315439  0.52073406  0.63016648    -0.79830
O1445       O  0.67768615  0.63414629  0.51034529    -0.80520
C1446       C  0.63864248  0.51649510  0.65288998     0.94740
O1447       O  0.61469872  0.60191336  0.62021943    -0.78560
O1448       O  0.75752874  0.59348687  0.61476714    -0.83670
C1449       C  0.76827389  0.68495569  0.58282954     0.97360
C1450       C  0.76842932  0.58386286  0.58237698     1.03280
O1451       O  0.75734164  0.66441567  0.55043305    -0.79310
C1452       C  0.63505303  0.61922875  0.65200816     1.01580
Fe1453     Fe  0.87375820  0.93709977  0.74924800     1.65780
Fe1454     Fe  0.78024599  0.88993742  0.80035714     1.73250
Fe1455     Fe  0.78028276  0.89001938  0.69816943     1.54420
O1456       O  0.82197763  0.94680056  0.67027456    -0.83050
O1457       O  0.74213607  0.82643749  0.78271587    -0.81350
O1458       O  0.87652438  0.98339167  0.71168502    -0.85550
O1459       O  0.87878675  0.90407977  0.70159915    -0.80410
O1460       O  0.74197440  0.91508601  0.71582313    -0.82180
O1461       O  0.82217170  0.87524106  0.82820385    -0.84930
C1462       C  0.85339646  0.87417500  0.67891995     0.95840
C1463       C  0.85617919  0.98015809  0.67985918     1.03280
O1464       O  0.81126414  0.90558521  0.74926370    -1.13910
O1465       O  0.81358152  0.95206287  0.82155441    -0.76340
O1466       O  0.87846184  0.97501592  0.79684029    -0.79830
O1467       O  0.81393164  0.86160830  0.67701543    -0.80520
C1468       C  0.85297306  0.97925741  0.81956050     0.94740
O1469       O  0.87691651  0.89383733  0.78688275    -0.78470
O1470       O  0.73408620  0.90226431  0.78143400    -0.83670
C1471       C  0.72334486  0.81079953  0.74949788     0.97370
C1472       C  0.72318763  0.91189104  0.74904399     1.03280
O1473       O  0.73427590  0.83134053  0.71710182    -0.79310
C1474       C  0.85656531  0.87652625  0.81867408     1.01580
Fe1475     Fe  0.55708935  0.93670615  0.74928328     1.65780
Fe1476     Fe  0.60360518  0.88979842  0.80038471     1.73250
Fe1477     Fe  0.60384507  0.89008093  0.69813568     1.54420
O1478       O  0.54711794  0.87510954  0.67019461    -0.83050
O1479       O  0.66707008  0.91493059  0.78286444    -0.81350
O1480       O  0.51079333  0.89344801  0.71150970    -0.85550
O1481       O  0.59034770  0.97487390  0.70184702    -0.80410
O1482       O  0.57871197  0.82659454  0.71565421    -0.82180
O1483       O  0.61857644  0.94649016  0.82838184    -0.84930
C1484       C  0.62012356  0.97929695  0.67909548     0.95840
C1485       C  0.51390996  0.87623108  0.67970287     1.03280
O1486       O  0.58826541  0.90543545  0.74926596    -1.13910
O1487       O  0.54146185  0.86119715  0.82145865    -0.76340
O1488       O  0.51895245  0.90345057  0.79673595    -0.79830
O1489       O  0.63246079  0.95224562  0.67703896    -0.80520
C1490       C  0.51448138  0.87362182  0.81944905     0.94740
O1491       O  0.60042078  0.98293841  0.78703567    -0.78470
O1492       O  0.59102947  0.83125288  0.78135461    -0.83670
C1493       C  0.68277305  0.91195868  0.74962425     0.97370
C1494       C  0.58170351  0.81087902  0.74888157     1.03280
O1495       O  0.66239676  0.90265661  0.71715070    -0.79310
C1496       C  0.61755794  0.97975044  0.81886006     1.01580
Fe1497     Fe  0.55658613  0.61981887  0.74917728     1.65780
Fe1498     Fe  0.60366853  0.71340035  0.69807999     1.73250
Fe1499     Fe  0.60367220  0.71332053  0.80028851     1.54420
O1500       O  0.54687672  0.67167625  0.82820234    -0.83050
O1501       O  0.66715199  0.75157616  0.71568651    -0.81350
O1502       O  0.51038459  0.61694347  0.78695078    -0.85550
O1503       O  0.58978868  0.61479717  0.79665570    -0.80410
O1504       O  0.57868248  0.75171184  0.78267311    -0.82180
O1505       O  0.61843660  0.67156282  0.67016538    -0.84930
C1506       C  0.61960401  0.64018353  0.81941317     0.95840
C1507       C  0.51357230  0.63738058  0.81870689     1.03280
O1508       O  0.58806953  0.68234027  0.74917797    -1.13910
O1509       O  0.54156685  0.68001721  0.67689655    -0.76340
O1510       O  0.51852586  0.61515162  0.70173973    -0.79830
O1511       O  0.63203213  0.67961987  0.82144226    -0.80520
C1512       C  0.51432866  0.64063998  0.67897252     0.94740
O1513       O  0.59971900  0.61668351  0.71135259    -0.78470
O1514       O  0.59128307  0.75951016  0.71702774    -0.83670
C1515       C  0.68284261  0.77029171  0.74892166     0.97360
C1516       C  0.58176666  0.77045440  0.74944750     1.03280
O1517       O  0.66236288  0.75928811  0.78134715    -0.79310
C1518       C  0.61709851  0.63712216  0.67961781     1.01580
Fe1519     Fe  0.93503332  0.87593789  0.91584332     1.65780
Fe1520     Fe  0.88795174  0.78235622  0.86474688     1.73250
Fe1521     Fe  0.88794419  0.78243682  0.96695539     1.54410
O1522       O  0.94473896  0.82408146  0.99487010    -0.83050
O1523       O  0.82446768  0.74417918  0.88235167    -0.81350
O1524       O  0.98123459  0.87881127  0.95361600    -0.85550
O1525       O  0.90183242  0.88096157  0.96332290    -0.80410
O1526       O  0.91293364  0.74404427  0.94934277    -0.82180
O1527       O  0.87318391  0.82419372  0.83683143    -0.84930
C1528       C  0.87201504  0.85557549  0.98607894     0.95840
C1529       C  0.97804501  0.85837522  0.98537350     1.03280
O1530       O  0.90354901  0.81341649  0.91584451    -1.13910
O1531       O  0.95005393  0.81573939  0.84356451    -0.76340
O1532       O  0.97309312  0.88060530  0.86840513    -0.79830
O1533       O  0.85958412  0.81613843  0.98810621    -0.80520
C1534       C  0.97729132  0.85511687  0.84563911     0.94740
O1535       O  0.89189982  0.87907267  0.87801875    -0.78470
O1536       O  0.90033737  0.73624725  0.88369663    -0.83670
C1537       C  0.80877586  0.72546410  0.91558680     0.97370
C1538       C  0.90985141  0.72530221  0.91611732     1.03280
O1539       O  0.82925408  0.73646908  0.94801311    -0.79310
C1540       C  0.87452088  0.85863386  0.84628383     1.01580
Fe1541     Fe  0.93452788  0.55904779  0.91595279     1.65780
Fe1542     Fe  0.88801269  0.60595773  0.96705424     1.73250
Fe1543     Fe  0.88777298  0.60567495  0.86480430     1.54420
O1544       O  0.94450201  0.62065223  0.83686479    -0.83050
O1545       O  0.82454854  0.58082879  0.94953299    -0.81350
O1546       O  0.98082090  0.60229924  0.87817242    -0.85550
O1547       O  0.90126292  0.52087415  0.86852261    -0.80410
O1548       O  0.91290182  0.66916035  0.88232394    -0.82180
O1549       O  0.87303730  0.54926546  0.99505169    -0.84930
C1550       C  0.87149218  0.51645550  0.84576616     0.95840
C1551       C  0.97770710  0.61952366  0.84636945     1.03280
O1552       O  0.90335251  0.59031987  0.91593512    -1.13910
O1553       O  0.95015496  0.63455545  0.98813034    -0.76340
O1554       O  0.97267029  0.59230980  0.96339979    -0.79830
O1555       O  0.85916119  0.54351149  0.84370395    -0.80520
C1556       C  0.97713851  0.62213499  0.98611624     0.94740
O1557       O  0.89120130  0.51281994  0.95371120    -0.78470
O1558       O  0.90059189  0.66450487  0.94802548    -0.83670
C1559       C  0.80884421  0.58379589  0.91629171     0.97370
C1560       C  0.90991424  0.68487734  0.91555177     1.03280
O1561       O  0.82921934  0.59309423  0.88381769    -0.79310
C1562       C  0.87405985  0.51600685  0.98553279     1.01580
Fe1563     Fe  0.61785838  0.55865569  0.91591250     1.65780
Fe1564     Fe  0.71137120  0.60581712  0.96702252     1.73250
Fe1565     Fe  0.71133551  0.60573619  0.86483424     1.54420
O1566       O  0.66964251  0.54895504  0.83693850    -0.83050
O1567       O  0.74948397  0.66931661  0.94938108    -0.81350
O1568       O  0.61508973  0.51236687  0.87834343    -0.85550
O1569       O  0.61283222  0.59168242  0.86826915    -0.80410
O1570       O  0.74964465  0.58067061  0.88248875    -0.82180
O1571       O  0.66944886  0.62051765  0.99486880    -0.84930
C1572       C  0.63822250  0.62158417  0.84558731     0.95840
C1573       C  0.63543785  0.51559931  0.84651996     1.03280
O1574       O  0.68035299  0.59016978  0.91592858    -1.13910
O1575       O  0.67803300  0.54369234  0.98822130    -0.76340
O1576       O  0.61315439  0.52073407  0.96349982    -0.79830
O1577       O  0.67768615  0.63414629  0.84367862    -0.80520
C1578       C  0.63864248  0.51649512  0.98622334     0.94740
O1579       O  0.61469870  0.60191335  0.95355276    -0.78560
O1580       O  0.75752874  0.59348689  0.94810049    -0.83670
C1581       C  0.76827389  0.68495570  0.91616287     0.97360
C1582       C  0.76842931  0.58386287  0.91571034     1.03280
O1583       O  0.75734164  0.66441568  0.88376638    -0.79310
C1584       C  0.63505301  0.61922876  0.98534149     1.01580
loop_ 
_geom_bond_atom_site_label_1 
_geom_bond_atom_site_label_2 
_geom_bond_distance 
_geom_bond_site_symmetry_2 
_ccdc_geom_bond_type 
Fe1          O17   2.061       .  S
Fe1           O7   2.058       .  S
Fe1          O14   2.056       .  S
Fe1           O6   2.061       .  S
Fe1          O12   1.964       .  S
Fe2           O5   2.094       .  S
Fe2           O9   2.070       .  S
Fe2          O13   2.079       .  S
Fe2          O18   2.041       .  S
Fe2          O12   1.969       .  S
Fe3          O21   2.041       .  S
Fe3           O8   2.093       .  S
Fe3          O15   2.079       .  S
Fe3           O4   2.071       .  S
Fe3          O12   1.968       .  S
O4           C11   1.267       .  A
O5           C19   1.279       .  A
O6           C11   1.268       .  A
O7           C10   1.266       .  A
O8           C20   1.279       .  A
O9           C22   1.267       .  A
C10          O15   1.269       .  A
C10         C340   1.462   1_554  S
C11         C770   1.458   1_554  S
O13          C16   1.269       .  A
O14          C16   1.266       .  A
C16         C494   1.462       .  S
O17          C22   1.268       .  A
O18          C20   1.262       .  A
C19          O21   1.262       .  A
C19          C63   1.470       .  S
C20          C41   1.469       .  S
C22          C88   1.458       .  S
Fe23         O39   2.060       .  S
Fe23         O29   2.055       .  S
Fe23         O36   2.055       .  S
Fe23         O28   2.061       .  S
Fe23         O34   1.964       .  S
Fe24         O27   2.093       .  S
Fe24         O31   2.071       .  S
Fe24         O35   2.079       .  S
Fe24         O40   2.040       .  S
Fe24         O34   1.969       .  S
Fe25         O43   2.040       .  S
Fe25         O30   2.094       .  S
Fe25         O37   2.079       .  S
Fe25         O26   2.072       .  S
Fe25         O34   1.969       .  S
O26          C33   1.268       .  A
O27          C41   1.279       .  A
O28          C33   1.268       .  A
O29          C32   1.265       .  A
O30          C42   1.279       .  A
O31          C44   1.267       .  A
C32          O37   1.269       .  A
C32         C786   1.462   1_554  S
C33        C1133   1.459   1_454  S
O35          C38   1.269       .  A
O36          C38   1.265       .  A
C38         C874   1.461   1_455  S
O39          C44   1.268       .  A
O40          C42   1.262       .  A
C41          O43   1.262       .  A
C42          C64   1.469       .  S
C44         C517   1.458       .  S
Fe45         O61   2.061       .  S
Fe45         O51   2.057       .  S
Fe45         O58   2.056       .  S
Fe45         O50   2.061       .  S
Fe45         O56   1.965       .  S
Fe46         O49   2.094       .  S
Fe46         O53   2.070       .  S
Fe46         O57   2.079       .  S
Fe46         O62   2.040       .  S
Fe46         O56   1.969       .  S
Fe47         O65   2.041       .  S
Fe47         O52   2.093       .  S
Fe47         O59   2.079       .  S
Fe47         O48   2.071       .  S
Fe47         O56   1.968       .  S
O48          C55   1.267       .  A
O49          C63   1.279       .  A
O50          C55   1.268       .  A
O51          C54   1.266       .  A
O52          C64   1.279       .  A
O53          C66   1.267       .  A
C54          O59   1.269       .  A
C54         C120   1.462       .  S
C55         C891   1.459   1_455  S
O57          C60   1.269       .  A
O58          C60   1.266       .  A
C60        C1160   1.461   1_454  S
O61          C66   1.268       .  A
O62          C64   1.262       .  A
C63          O65   1.262       .  A
C66         C396   1.458   1_554  S
Fe67         O83   2.061       .  S
Fe67         O73   2.058       .  S
Fe67         O80   2.056       .  S
Fe67         O72   2.061       .  S
Fe67         O78   1.965       .  S
Fe68         O71   2.094       .  S
Fe68         O75   2.070       .  S
Fe68         O79   2.079       .  S
Fe68         O84   2.040       .  S
Fe68         O78   1.969       .  S
Fe69         O87   2.041       .  S
Fe69         O74   2.093       .  S
Fe69         O81   2.079       .  S
Fe69         O70   2.071       .  S
Fe69         O78   1.968       .  S
O70          C77   1.267       .  A
O71          C85   1.279       .  A
O72          C77   1.268       .  A
O73          C76   1.266       .  A
O74          C86   1.279       .  A
O75          C88   1.267       .  A
C76          O81   1.269       .  A
C76         C142   1.462       .  S
C77         C957   1.459       .  S
O79          C82   1.269       .  A
O80          C82   1.266       .  A
C82         C830   1.461       .  S
O83          C88   1.268       .  A
O84          C86   1.262       .  A
C85          O87   1.262       .  A
C85         C129   1.470       .  S
C86         C108   1.469       .  S
Fe89        O105   2.060       .  S
Fe89         O95   2.055       .  S
Fe89        O102   2.055       .  S
Fe89         O94   2.061       .  S
Fe89        O100   1.964       .  S
Fe90         O93   2.093       .  S
Fe90         O97   2.071       .  S
Fe90        O101   2.079       .  S
Fe90        O106   2.040       .  S
Fe90        O100   1.969       .  S
Fe91        O109   2.040       .  S
Fe91         O96   2.094       .  S
Fe91        O103   2.079       .  S
Fe91         O92   2.072       .  S
Fe91        O100   1.969       .  S
O92          C99   1.268       .  A
O93         C107   1.279       .  A
O94          C99   1.268       .  A
O95          C98   1.265       .  A
O96         C108   1.279       .  A
O97         C110   1.267       .  A
C98         O103   1.269       .  A
C98         C412   1.462   1_545  S
C99         C847   1.459       .  S
O101        C104   1.269       .  A
O102        C104   1.265       .  A
C104        C984   1.461       .  S
O105        C110   1.268       .  A
O106        C108   1.262       .  A
C107        O109   1.262       .  A
C107        C130   1.469       .  S
C110        C539   1.458   1_545  S
Fe111       O127   2.061       .  S
Fe111       O117   2.058       .  S
Fe111       O124   2.056       .  S
Fe111       O116   2.061       .  S
Fe111       O122   1.965       .  S
Fe112       O115   2.094       .  S
Fe112       O119   2.070       .  S
Fe112       O123   2.079       .  S
Fe112       O128   2.040       .  S
Fe112       O122   1.969       .  S
Fe113       O131   2.041       .  S
Fe113       O118   2.093       .  S
Fe113       O125   2.079       .  S
Fe113       O114   2.071       .  S
Fe113       O122   1.968       .  S
O114        C121   1.267       .  A
O115        C129   1.279       .  A
O116        C121   1.268       .  A
O117        C120   1.266       .  A
O118        C130   1.279       .  A
O119        C132   1.267       .  A
C120        O125   1.269       .  A
C121        C440   1.458   1_545  S
O123        C126   1.269       .  A
O124        C126   1.266       .  A
C126        C560   1.462   1_545  S
O127        C132   1.268       .  A
O128        C130   1.262       .  A
C129        O131   1.262       .  A
C132        C198   1.458       .  S
Fe133       O149   2.061       .  S
Fe133       O139   2.058       .  S
Fe133       O146   2.056       .  S
Fe133       O138   2.061       .  S
Fe133       O144   1.964       .  S
Fe134       O137   2.094       .  S
Fe134       O141   2.070       .  S
Fe134       O145   2.079       .  S
Fe134       O150   2.041       .  S
Fe134       O144   1.969       .  S
Fe135       O153   2.041       .  S
Fe135       O140   2.093       .  S
Fe135       O147   2.079       .  S
Fe135       O136   2.071       .  S
Fe135       O144   1.968       .  S
O136        C143   1.267       .  A
O137        C151   1.279       .  A
O138        C143   1.268       .  A
O139        C142   1.266       .  A
O140        C152   1.279       .  A
O141        C154   1.267       .  A
C142        O147   1.269       .  A
C143        C506   1.458       .  S
O145        C148   1.269       .  A
O146        C148   1.266       .  A
C148        C626   1.462       .  S
O149        C154   1.268       .  A
O150        C152   1.262       .  A
C151        O153   1.262       .  A
C151        C195   1.470       .  S
C152        C173   1.469       .  S
C154        C220   1.458       .  S
Fe155       O171   2.060       .  S
Fe155       O161   2.055       .  S
Fe155       O168   2.055       .  S
Fe155       O160   2.061       .  S
Fe155       O166   1.964       .  S
Fe156       O159   2.093       .  S
Fe156       O163   2.071       .  S
Fe156       O167   2.079       .  S
Fe156       O172   2.040       .  S
Fe156       O166   1.969       .  S
Fe157       O175   2.040       .  S
Fe157       O162   2.094       .  S
Fe157       O169   2.079       .  S
Fe157       O158   2.072       .  S
Fe157       O166   1.969       .  S
O158        C165   1.268       .  A
O159        C173   1.279       .  A
O160        C165   1.268       .  A
O161        C164   1.265       .  A
O162        C174   1.279       .  A
O163        C176   1.267       .  A
C164        O169   1.269       .  A
C164        C522   1.462       .  S
C165        C869   1.459   1_455  S
O167        C170   1.269       .  A
O168        C170   1.265       .  A
C170       C1006   1.461   1_455  S
O171        C176   1.268       .  A
O172        C174   1.262       .  A
C173        O175   1.262       .  A
C174        C196   1.469       .  S
C176        C649   1.458       .  S
Fe177       O193   2.061       .  S
Fe177       O183   2.057       .  S
Fe177       O190   2.056       .  S
Fe177       O182   2.061       .  S
Fe177       O188   1.965       .  S
Fe178       O181   2.094       .  S
Fe178       O185   2.070       .  S
Fe178       O189   2.079       .  S
Fe178       O194   2.040       .  S
Fe178       O188   1.969       .  S
Fe179       O197   2.041       .  S
Fe179       O184   2.093       .  S
Fe179       O191   2.079       .  S
Fe179       O180   2.071       .  S
Fe179       O188   1.968       .  S
O180        C187   1.267       .  A
O181        C195   1.279       .  A
O182        C187   1.268       .  A
O183        C186   1.266       .  A
O184        C196   1.279       .  A
O185        C198   1.267       .  A
C186        O191   1.269       .  A
C186        C252   1.462       .  S
C187       C1023   1.459   1_455  S
O189        C192   1.269       .  A
O190        C192   1.266       .  A
C192        C896   1.461   1_455  S
O193        C198   1.268       .  A
O194        C196   1.262       .  A
C195        O197   1.262       .  A
Fe199       O215   2.061       .  S
Fe199       O205   2.058       .  S
Fe199       O212   2.056       .  S
Fe199       O204   2.061       .  S
Fe199       O210   1.965       .  S
Fe200       O203   2.094       .  S
Fe200       O207   2.070       .  S
Fe200       O211   2.079       .  S
Fe200       O216   2.040       .  S
Fe200       O210   1.969       .  S
Fe201       O219   2.041       .  S
Fe201       O206   2.093       .  S
Fe201       O213   2.079       .  S
Fe201       O202   2.071       .  S
Fe201       O210   1.968       .  S
O202        C209   1.267       .  A
O203        C217   1.279       .  A
O204        C209   1.268       .  A
O205        C208   1.266       .  A
O206        C218   1.279       .  A
O207        C220   1.267       .  A
C208        O213   1.269       .  A
C208        C274   1.462       .  S
C209       C1089   1.459       .  S
O211        C214   1.269       .  A
O212        C214   1.266       .  A
C214        C962   1.461       .  S
O215        C220   1.268       .  A
O216        C218   1.262       .  A
C217        O219   1.262       .  A
C217        C261   1.470       .  S
C218        C240   1.469       .  S
Fe221       O237   2.060       .  S
Fe221       O227   2.055       .  S
Fe221       O234   2.055       .  S
Fe221       O226   2.061       .  S
Fe221       O232   1.964       .  S
Fe222       O225   2.093       .  S
Fe222       O229   2.071       .  S
Fe222       O233   2.079       .  S
Fe222       O238   2.040       .  S
Fe222       O232   1.969       .  S
Fe223       O241   2.040       .  S
Fe223       O228   2.094       .  S
Fe223       O235   2.079       .  S
Fe223       O224   2.072       .  S
Fe223       O232   1.969       .  S
O224        C231   1.268       .  A
O225        C239   1.279       .  A
O226        C231   1.268       .  A
O227        C230   1.265       .  A
O228        C240   1.279       .  A
O229        C242   1.267       .  A
C230        O235   1.269       .  A
C230        C544   1.462   1_545  S
C231        C979   1.459       .  S
O233        C236   1.269       .  A
O234        C236   1.265       .  A
C236       C1116   1.461       .  S
O237        C242   1.268       .  A
O238        C240   1.262       .  A
C239        O241   1.262       .  A
C239        C262   1.469       .  S
C242        C671   1.458   1_545  S
Fe243       O259   2.061       .  S
Fe243       O249   2.058       .  S
Fe243       O256   2.056       .  S
Fe243       O248   2.061       .  S
Fe243       O254   1.965       .  S
Fe244       O247   2.094       .  S
Fe244       O251   2.070       .  S
Fe244       O255   2.079       .  S
Fe244       O260   2.040       .  S
Fe244       O254   1.969       .  S
Fe245       O263   2.041       .  S
Fe245       O250   2.093       .  S
Fe245       O257   2.079       .  S
Fe245       O246   2.071       .  S
Fe245       O254   1.968       .  S
O246        C253   1.267       .  A
O247        C261   1.279       .  A
O248        C253   1.268       .  A
O249        C252   1.266       .  A
O250        C262   1.279       .  A
O251        C264   1.267       .  A
C252        O257   1.269       .  A
C253        C572   1.458   1_545  S
O255        C258   1.269       .  A
O256        C258   1.266       .  A
C258        C692   1.462   1_545  S
O259        C264   1.268       .  A
O260        C262   1.262       .  A
C261        O263   1.262       .  A
C264        C330   1.458       .  S
Fe265       O281   2.061       .  S
Fe265       O271   2.058       .  S
Fe265       O278   2.056       .  S
Fe265       O270   2.061       .  S
Fe265       O276   1.964       .  S
Fe266       O269   2.094       .  S
Fe266       O273   2.070       .  S
Fe266       O277   2.079       .  S
Fe266       O282   2.041       .  S
Fe266       O276   1.969       .  S
Fe267       O285   2.041       .  S
Fe267       O272   2.093       .  S
Fe267       O279   2.079       .  S
Fe267       O268   2.071       .  S
Fe267       O276   1.968       .  S
O268        C275   1.267       .  A
O269        C283   1.279       .  A
O270        C275   1.268       .  A
O271        C274   1.266       .  A
O272        C284   1.279       .  A
O273        C286   1.267       .  A
C274        O279   1.269       .  A
C275        C638   1.458       .  S
O277        C280   1.269       .  A
O278        C280   1.266       .  A
C280        C758   1.462       .  S
O281        C286   1.268       .  A
O282        C284   1.262       .  A
C283        O285   1.262       .  A
C283        C327   1.470       .  S
C284        C305   1.469       .  S
C286        C352   1.458       .  S
Fe287       O303   2.060       .  S
Fe287       O293   2.055       .  S
Fe287       O300   2.055       .  S
Fe287       O292   2.061       .  S
Fe287       O298   1.964       .  S
Fe288       O291   2.093       .  S
Fe288       O295   2.071       .  S
Fe288       O299   2.079       .  S
Fe288       O304   2.040       .  S
Fe288       O298   1.969       .  S
Fe289       O307   2.040       .  S
Fe289       O294   2.094       .  S
Fe289       O301   2.079       .  S
Fe289       O290   2.072       .  S
Fe289       O298   1.969       .  S
O290        C297   1.268       .  A
O291        C305   1.279       .  A
O292        C297   1.268       .  A
O293        C296   1.265       .  A
O294        C306   1.279       .  A
O295        C308   1.267       .  A
C296        O301   1.269       .  A
C296        C654   1.462       .  S
C297       C1001   1.459   1_455  S
O299        C302   1.269       .  A
O300        C302   1.265       .  A
C302       C1138   1.461   1_455  S
O303        C308   1.268       .  A
O304        C306   1.262       .  A
C305        O307   1.262       .  A
C306        C328   1.469       .  S
C308        C781   1.458       .  S
Fe309       O325   2.061       .  S
Fe309       O315   2.057       .  S
Fe309       O322   2.056       .  S
Fe309       O314   2.061       .  S
Fe309       O320   1.965       .  S
Fe310       O313   2.094       .  S
Fe310       O317   2.070       .  S
Fe310       O321   2.079       .  S
Fe310       O326   2.040       .  S
Fe310       O320   1.969       .  S
Fe311       O329   2.041       .  S
Fe311       O316   2.093       .  S
Fe311       O323   2.079       .  S
Fe311       O312   2.071       .  S
Fe311       O320   1.968       .  S
O312        C319   1.267       .  A
O313        C327   1.279       .  A
O314        C319   1.268       .  A
O315        C318   1.266       .  A
O316        C328   1.279       .  A
O317        C330   1.267       .  A
C318        O323   1.269       .  A
C318        C384   1.462       .  S
C319       C1155   1.459   1_455  S
O321        C324   1.269       .  A
O322        C324   1.266       .  A
C324       C1028   1.461   1_455  S
O325        C330   1.268       .  A
O326        C328   1.262       .  A
C327        O329   1.262       .  A
Fe331       O347   2.061       .  S
Fe331       O337   2.058       .  S
Fe331       O344   2.056       .  S
Fe331       O336   2.061       .  S
Fe331       O342   1.965       .  S
Fe332       O335   2.094       .  S
Fe332       O339   2.070       .  S
Fe332       O343   2.079       .  S
Fe332       O348   2.040       .  S
Fe332       O342   1.969       .  S
Fe333       O351   2.041       .  S
Fe333       O338   2.093       .  S
Fe333       O345   2.079       .  S
Fe333       O334   2.071       .  S
Fe333       O342   1.968       .  S
O334        C341   1.267       .  A
O335        C349   1.279       .  A
O336        C341   1.268       .  A
O337        C340   1.266       .  A
O338        C350   1.279       .  A
O339        C352   1.267       .  A
C340        O345   1.269       .  A
C341        C825   1.459   1_556  S
O343        C346   1.269       .  A
O344        C346   1.266       .  A
C346       C1094   1.461       .  S
O347        C352   1.268       .  A
O348        C350   1.262       .  A
C349        O351   1.262       .  A
C349        C393   1.470       .  S
C350        C372   1.469       .  S
Fe353       O369   2.060       .  S
Fe353       O359   2.055       .  S
Fe353       O366   2.055       .  S
Fe353       O358   2.061       .  S
Fe353       O364   1.964       .  S
Fe354       O357   2.093       .  S
Fe354       O361   2.071       .  S
Fe354       O365   2.079       .  S
Fe354       O370   2.040       .  S
Fe354       O364   1.969       .  S
Fe355       O373   2.040       .  S
Fe355       O360   2.094       .  S
Fe355       O367   2.079       .  S
Fe355       O356   2.072       .  S
Fe355       O364   1.969       .  S
O356        C363   1.268       .  A
O357        C371   1.279       .  A
O358        C363   1.268       .  A
O359        C362   1.265       .  A
O360        C372   1.279       .  A
O361        C374   1.267       .  A
C362        O367   1.269       .  A
C362        C676   1.462   1_545  S
C363       C1111   1.459       .  S
O365        C368   1.269       .  A
O366        C368   1.265       .  A
C368        C852   1.461   1_556  S
O369        C374   1.268       .  A
O370        C372   1.262       .  A
C371        O373   1.262       .  A
C371        C394   1.469       .  S
C374        C407   1.458   1_546  S
Fe375       O391   2.061       .  S
Fe375       O381   2.058       .  S
Fe375       O388   2.056       .  S
Fe375       O380   2.061       .  S
Fe375       O386   1.965       .  S
Fe376       O379   2.094       .  S
Fe376       O383   2.070       .  S
Fe376       O387   2.079       .  S
Fe376       O392   2.040       .  S
Fe376       O386   1.969       .  S
Fe377       O395   2.041       .  S
Fe377       O382   2.093       .  S
Fe377       O389   2.079       .  S
Fe377       O378   2.071       .  S
Fe377       O386   1.968       .  S
O378        C385   1.267       .  A
O379        C393   1.279       .  A
O380        C385   1.268       .  A
O381        C384   1.266       .  A
O382        C394   1.279       .  A
O383        C396   1.267       .  A
C384        O389   1.269       .  A
C385        C704   1.458   1_545  S
O387        C390   1.269       .  A
O388        C390   1.266       .  A
C390        C428   1.462   1_546  S
O391        C396   1.268       .  A
O392        C394   1.262       .  A
C393        O395   1.262       .  A
Fe397       O413   2.061       .  S
Fe397       O403   2.058       .  S
Fe397       O410   2.056       .  S
Fe397       O402   2.061       .  S
Fe397       O408   1.964       .  S
Fe398       O401   2.094       .  S
Fe398       O405   2.070       .  S
Fe398       O409   2.079       .  S
Fe398       O414   2.041       .  S
Fe398       O408   1.969       .  S
Fe399       O417   2.041       .  S
Fe399       O404   2.093       .  S
Fe399       O411   2.079       .  S
Fe399       O400   2.071       .  S
Fe399       O408   1.968       .  S
O400        C407   1.267       .  A
O401        C415   1.279       .  A
O402        C407   1.268       .  A
O403        C406   1.266       .  A
O404        C416   1.279       .  A
O405        C418   1.267       .  A
C406        O411   1.269       .  A
C406        C736   1.462   1_554  S
O409        C412   1.269       .  A
O410        C412   1.266       .  A
O413        C418   1.268       .  A
O414        C416   1.262       .  A
C415        O417   1.262       .  A
C415        C459   1.470       .  S
C416        C437   1.469       .  S
C418        C484   1.458       .  S
Fe419       O435   2.060       .  S
Fe419       O425   2.055       .  S
Fe419       O432   2.055       .  S
Fe419       O424   2.061       .  S
Fe419       O430   1.964       .  S
Fe420       O423   2.093       .  S
Fe420       O427   2.071       .  S
Fe420       O431   2.079       .  S
Fe420       O436   2.040       .  S
Fe420       O430   1.969       .  S
Fe421       O439   2.040       .  S
Fe421       O426   2.094       .  S
Fe421       O433   2.079       .  S
Fe421       O422   2.072       .  S
Fe421       O430   1.969       .  S
O422        C429   1.268       .  A
O423        C437   1.279       .  A
O424        C429   1.268       .  A
O425        C428   1.265       .  A
O426        C438   1.279       .  A
O427        C440   1.267       .  A
C428        O433   1.269       .  A
C429       C1529   1.459   1_454  S
O431        C434   1.269       .  A
O432        C434   1.265       .  A
C434       C1270   1.461   1_455  S
O435        C440   1.268       .  A
O436        C438   1.262       .  A
C437        O439   1.262       .  A
C438        C460   1.469       .  S
Fe441       O457   2.061       .  S
Fe441       O447   2.057       .  S
Fe441       O454   2.056       .  S
Fe441       O446   2.061       .  S
Fe441       O452   1.965       .  S
Fe442       O445   2.094       .  S
Fe442       O449   2.070       .  S
Fe442       O453   2.079       .  S
Fe442       O458   2.040       .  S
Fe442       O452   1.969       .  S
Fe443       O461   2.041       .  S
Fe443       O448   2.093       .  S
Fe443       O455   2.079       .  S
Fe443       O444   2.071       .  S
Fe443       O452   1.968       .  S
O444        C451   1.267       .  A
O445        C459   1.279       .  A
O446        C451   1.268       .  A
O447        C450   1.266       .  A
O448        C460   1.279       .  A
O449        C462   1.267       .  A
C450        O455   1.269       .  A
C450        C516   1.462       .  S
C451       C1287   1.459   1_455  S
O453        C456   1.269       .  A
O454        C456   1.266       .  A
C456       C1556   1.461   1_454  S
O457        C462   1.268       .  A
O458        C460   1.262       .  A
C459        O461   1.262       .  A
C462        C792   1.458   1_554  S
Fe463       O479   2.061       .  S
Fe463       O469   2.058       .  S
Fe463       O476   2.056       .  S
Fe463       O468   2.061       .  S
Fe463       O474   1.965       .  S
Fe464       O467   2.094       .  S
Fe464       O471   2.070       .  S
Fe464       O475   2.079       .  S
Fe464       O480   2.040       .  S
Fe464       O474   1.969       .  S
Fe465       O483   2.041       .  S
Fe465       O470   2.093       .  S
Fe465       O477   2.079       .  S
Fe465       O466   2.071       .  S
Fe465       O474   1.968       .  S
O466        C473   1.267       .  A
O467        C481   1.279       .  A
O468        C473   1.268       .  A
O469        C472   1.266       .  A
O470        C482   1.279       .  A
O471        C484   1.267       .  A
C472        O477   1.269       .  A
C472        C538   1.462       .  S
C473       C1353   1.459       .  S
O475        C478   1.269       .  A
O476        C478   1.266       .  A
C478       C1226   1.461       .  S
O479        C484   1.268       .  A
O480        C482   1.262       .  A
C481        O483   1.262       .  A
C481        C525   1.470       .  S
C482        C504   1.469       .  S
Fe485       O501   2.060       .  S
Fe485       O491   2.055       .  S
Fe485       O498   2.055       .  S
Fe485       O490   2.061       .  S
Fe485       O496   1.964       .  S
Fe486       O489   2.093       .  S
Fe486       O493   2.071       .  S
Fe486       O497   2.079       .  S
Fe486       O502   2.040       .  S
Fe486       O496   1.969       .  S
Fe487       O505   2.040       .  S
Fe487       O492   2.094       .  S
Fe487       O499   2.079       .  S
Fe487       O488   2.072       .  S
Fe487       O496   1.969       .  S
O488        C495   1.268       .  A
O489        C503   1.279       .  A
O490        C495   1.268       .  A
O491        C494   1.265       .  A
O492        C504   1.279       .  A
O493        C506   1.267       .  A
C494        O499   1.269       .  A
C495       C1243   1.459       .  S
O497        C500   1.269       .  A
O498        C500   1.265       .  A
C500       C1380   1.461       .  S
O501        C506   1.268       .  A
O502        C504   1.262       .  A
C503        O505   1.262       .  A
C503        C526   1.469       .  S
Fe507       O523   2.061       .  S
Fe507       O513   2.058       .  S
Fe507       O520   2.056       .  S
Fe507       O512   2.061       .  S
Fe507       O518   1.965       .  S
Fe508       O511   2.094       .  S
Fe508       O515   2.070       .  S
Fe508       O519   2.079       .  S
Fe508       O524   2.040       .  S
Fe508       O518   1.969       .  S
Fe509       O527   2.041       .  S
Fe509       O514   2.093       .  S
Fe509       O521   2.079       .  S
Fe509       O510   2.071       .  S
Fe509       O518   1.968       .  S
O510        C517   1.267       .  A
O511        C525   1.279       .  A
O512        C517   1.268       .  A
O513        C516   1.266       .  A
O514        C526   1.279       .  A
O515        C528   1.267       .  A
C516        O521   1.269       .  A
O519        C522   1.269       .  A
O520        C522   1.266       .  A
O523        C528   1.268       .  A
O524        C526   1.262       .  A
C525        O527   1.262       .  A
C528        C594   1.458       .  S
Fe529       O545   2.061       .  S
Fe529       O535   2.058       .  S
Fe529       O542   2.056       .  S
Fe529       O534   2.061       .  S
Fe529       O540   1.964       .  S
Fe530       O533   2.094       .  S
Fe530       O537   2.070       .  S
Fe530       O541   2.079       .  S
Fe530       O546   2.041       .  S
Fe530       O540   1.969       .  S
Fe531       O549   2.041       .  S
Fe531       O536   2.093       .  S
Fe531       O543   2.079       .  S
Fe531       O532   2.071       .  S
Fe531       O540   1.968       .  S
O532        C539   1.267       .  A
O533        C547   1.279       .  A
O534        C539   1.268       .  A
O535        C538   1.266       .  A
O536        C548   1.279       .  A
O537        C550   1.267       .  A
C538        O543   1.269       .  A
O541        C544   1.269       .  A
O542        C544   1.266       .  A
O545        C550   1.268       .  A
O546        C548   1.262       .  A
C547        O549   1.262       .  A
C547        C591   1.470       .  S
C548        C569   1.469       .  S
C550        C616   1.458       .  S
Fe551       O567   2.060       .  S
Fe551       O557   2.055       .  S
Fe551       O564   2.055       .  S
Fe551       O556   2.061       .  S
Fe551       O562   1.964       .  S
Fe552       O555   2.093       .  S
Fe552       O559   2.071       .  S
Fe552       O563   2.079       .  S
Fe552       O568   2.040       .  S
Fe552       O562   1.969       .  S
Fe553       O571   2.040       .  S
Fe553       O558   2.094       .  S
Fe553       O565   2.079       .  S
Fe553       O554   2.072       .  S
Fe553       O562   1.969       .  S
O554        C561   1.268       .  A
O555        C569   1.279       .  A
O556        C561   1.268       .  A
O557        C560   1.265       .  A
O558        C570   1.279       .  A
O559        C572   1.267       .  A
C560        O565   1.269       .  A
C561       C1265   1.459   1_455  S
O563        C566   1.269       .  A
O564        C566   1.265       .  A
C566       C1402   1.461   1_455  S
O567        C572   1.268       .  A
O568        C570   1.262       .  A
C569        O571   1.262       .  A
C570        C592   1.469       .  S
Fe573       O589   2.061       .  S
Fe573       O579   2.057       .  S
Fe573       O586   2.056       .  S
Fe573       O578   2.061       .  S
Fe573       O584   1.965       .  S
Fe574       O577   2.094       .  S
Fe574       O581   2.070       .  S
Fe574       O585   2.079       .  S
Fe574       O590   2.040       .  S
Fe574       O584   1.969       .  S
Fe575       O593   2.041       .  S
Fe575       O580   2.093       .  S
Fe575       O587   2.079       .  S
Fe575       O576   2.071       .  S
Fe575       O584   1.968       .  S
O576        C583   1.267       .  A
O577        C591   1.279       .  A
O578        C583   1.268       .  A
O579        C582   1.266       .  A
O580        C592   1.279       .  A
O581        C594   1.267       .  A
C582        O587   1.269       .  A
C582        C648   1.462       .  S
C583       C1419   1.459   1_455  S
O585        C588   1.269       .  A
O586        C588   1.266       .  A
C588       C1292   1.461   1_455  S
O589        C594   1.268       .  A
O590        C592   1.262       .  A
C591        O593   1.262       .  A
Fe595       O611   2.061       .  S
Fe595       O601   2.058       .  S
Fe595       O608   2.056       .  S
Fe595       O600   2.061       .  S
Fe595       O606   1.965       .  S
Fe596       O599   2.094       .  S
Fe596       O603   2.070       .  S
Fe596       O607   2.079       .  S
Fe596       O612   2.040       .  S
Fe596       O606   1.969       .  S
Fe597       O615   2.041       .  S
Fe597       O602   2.093       .  S
Fe597       O609   2.079       .  S
Fe597       O598   2.071       .  S
Fe597       O606   1.968       .  S
O598        C605   1.267       .  A
O599        C613   1.279       .  A
O600        C605   1.268       .  A
O601        C604   1.266       .  A
O602        C614   1.279       .  A
O603        C616   1.267       .  A
C604        O609   1.269       .  A
C604        C670   1.462       .  S
C605       C1485   1.459       .  S
O607        C610   1.269       .  A
O608        C610   1.266       .  A
C610       C1358   1.461       .  S
O611        C616   1.268       .  A
O612        C614   1.262       .  A
C613        O615   1.262       .  A
C613        C657   1.470       .  S
C614        C636   1.469       .  S
Fe617       O633   2.060       .  S
Fe617       O623   2.055       .  S
Fe617       O630   2.055       .  S
Fe617       O622   2.061       .  S
Fe617       O628   1.964       .  S
Fe618       O621   2.093       .  S
Fe618       O625   2.071       .  S
Fe618       O629   2.079       .  S
Fe618       O634   2.040       .  S
Fe618       O628   1.969       .  S
Fe619       O637   2.040       .  S
Fe619       O624   2.094       .  S
Fe619       O631   2.079       .  S
Fe619       O620   2.072       .  S
Fe619       O628   1.969       .  S
O620        C627   1.268       .  A
O621        C635   1.279       .  A
O622        C627   1.268       .  A
O623        C626   1.265       .  A
O624        C636   1.279       .  A
O625        C638   1.267       .  A
C626        O631   1.269       .  A
C627       C1375   1.459       .  S
O629        C632   1.269       .  A
O630        C632   1.265       .  A
C632       C1512   1.461       .  S
O633        C638   1.268       .  A
O634        C636   1.262       .  A
C635        O637   1.262       .  A
C635        C658   1.469       .  S
Fe639       O655   2.061       .  S
Fe639       O645   2.058       .  S
Fe639       O652   2.056       .  S
Fe639       O644   2.061       .  S
Fe639       O650   1.965       .  S
Fe640       O643   2.094       .  S
Fe640       O647   2.070       .  S
Fe640       O651   2.079       .  S
Fe640       O656   2.040       .  S
Fe640       O650   1.969       .  S
Fe641       O659   2.041       .  S
Fe641       O646   2.093       .  S
Fe641       O653   2.079       .  S
Fe641       O642   2.071       .  S
Fe641       O650   1.968       .  S
O642        C649   1.267       .  A
O643        C657   1.279       .  A
O644        C649   1.268       .  A
O645        C648   1.266       .  A
O646        C658   1.279       .  A
O647        C660   1.267       .  A
C648        O653   1.269       .  A
O651        C654   1.269       .  A
O652        C654   1.266       .  A
O655        C660   1.268       .  A
O656        C658   1.262       .  A
C657        O659   1.262       .  A
C660        C726   1.458       .  S
Fe661       O677   2.061       .  S
Fe661       O667   2.058       .  S
Fe661       O674   2.056       .  S
Fe661       O666   2.061       .  S
Fe661       O672   1.964       .  S
Fe662       O665   2.094       .  S
Fe662       O669   2.070       .  S
Fe662       O673   2.079       .  S
Fe662       O678   2.041       .  S
Fe662       O672   1.969       .  S
Fe663       O681   2.041       .  S
Fe663       O668   2.093       .  S
Fe663       O675   2.079       .  S
Fe663       O664   2.071       .  S
Fe663       O672   1.968       .  S
O664        C671   1.267       .  A
O665        C679   1.279       .  A
O666        C671   1.268       .  A
O667        C670   1.266       .  A
O668        C680   1.279       .  A
O669        C682   1.267       .  A
C670        O675   1.269       .  A
O673        C676   1.269       .  A
O674        C676   1.266       .  A
O677        C682   1.268       .  A
O678        C680   1.262       .  A
C679        O681   1.262       .  A
C679        C723   1.470       .  S
C680        C701   1.469       .  S
C682        C748   1.458       .  S
Fe683       O699   2.060       .  S
Fe683       O689   2.055       .  S
Fe683       O696   2.055       .  S
Fe683       O688   2.061       .  S
Fe683       O694   1.964       .  S
Fe684       O687   2.093       .  S
Fe684       O691   2.071       .  S
Fe684       O695   2.079       .  S
Fe684       O700   2.040       .  S
Fe684       O694   1.969       .  S
Fe685       O703   2.040       .  S
Fe685       O690   2.094       .  S
Fe685       O697   2.079       .  S
Fe685       O686   2.072       .  S
Fe685       O694   1.969       .  S
O686        C693   1.268       .  A
O687        C701   1.279       .  A
O688        C693   1.268       .  A
O689        C692   1.265       .  A
O690        C702   1.279       .  A
O691        C704   1.267       .  A
C692        O697   1.269       .  A
C693       C1397   1.459   1_455  S
O695        C698   1.269       .  A
O696        C698   1.265       .  A
C698       C1534   1.461   1_455  S
O699        C704   1.268       .  A
O700        C702   1.262       .  A
C701        O703   1.262       .  A
C702        C724   1.469       .  S
Fe705       O721   2.061       .  S
Fe705       O711   2.057       .  S
Fe705       O718   2.056       .  S
Fe705       O710   2.061       .  S
Fe705       O716   1.965       .  S
Fe706       O709   2.094       .  S
Fe706       O713   2.070       .  S
Fe706       O717   2.079       .  S
Fe706       O722   2.040       .  S
Fe706       O716   1.969       .  S
Fe707       O725   2.041       .  S
Fe707       O712   2.093       .  S
Fe707       O719   2.079       .  S
Fe707       O708   2.071       .  S
Fe707       O716   1.968       .  S
O708        C715   1.267       .  A
O709        C723   1.279       .  A
O710        C715   1.268       .  A
O711        C714   1.266       .  A
O712        C724   1.279       .  A
O713        C726   1.267       .  A
C714        O719   1.269       .  A
C714        C780   1.462       .  S
C715       C1551   1.459   1_455  S
O717        C720   1.269       .  A
O718        C720   1.266       .  A
C720       C1424   1.461   1_455  S
O721        C726   1.268       .  A
O722        C724   1.262       .  A
C723        O725   1.262       .  A
Fe727       O743   2.061       .  S
Fe727       O733   2.058       .  S
Fe727       O740   2.056       .  S
Fe727       O732   2.061       .  S
Fe727       O738   1.965       .  S
Fe728       O731   2.094       .  S
Fe728       O735   2.070       .  S
Fe728       O739   2.079       .  S
Fe728       O744   2.040       .  S
Fe728       O738   1.969       .  S
Fe729       O747   2.041       .  S
Fe729       O734   2.093       .  S
Fe729       O741   2.079       .  S
Fe729       O730   2.071       .  S
Fe729       O738   1.968       .  S
O730        C737   1.267       .  A
O731        C745   1.279       .  A
O732        C737   1.268       .  A
O733        C736   1.266       .  A
O734        C746   1.279       .  A
O735        C748   1.267       .  A
C736        O741   1.269       .  A
C737       C1221   1.459   1_556  S
O739        C742   1.269       .  A
O740        C742   1.266       .  A
C742       C1490   1.461       .  S
O743        C748   1.268       .  A
O744        C746   1.262       .  A
C745        O747   1.262       .  A
C745        C789   1.470       .  S
C746        C768   1.469       .  S
Fe749       O765   2.060       .  S
Fe749       O755   2.055       .  S
Fe749       O762   2.055       .  S
Fe749       O754   2.061       .  S
Fe749       O760   1.964       .  S
Fe750       O753   2.093       .  S
Fe750       O757   2.071       .  S
Fe750       O761   2.079       .  S
Fe750       O766   2.040       .  S
Fe750       O760   1.969       .  S
Fe751       O769   2.040       .  S
Fe751       O756   2.094       .  S
Fe751       O763   2.079       .  S
Fe751       O752   2.072       .  S
Fe751       O760   1.969       .  S
O752        C759   1.268       .  A
O753        C767   1.279       .  A
O754        C759   1.268       .  A
O755        C758   1.265       .  A
O756        C768   1.279       .  A
O757        C770   1.267       .  A
C758        O763   1.269       .  A
C759       C1507   1.459       .  S
O761        C764   1.269       .  A
O762        C764   1.265       .  A
C764       C1248   1.461   1_556  S
O765        C770   1.268       .  A
O766        C768   1.262       .  A
C767        O769   1.262       .  A
C767        C790   1.469       .  S
Fe771       O787   2.061       .  S
Fe771       O777   2.058       .  S
Fe771       O784   2.056       .  S
Fe771       O776   2.061       .  S
Fe771       O782   1.965       .  S
Fe772       O775   2.094       .  S
Fe772       O779   2.070       .  S
Fe772       O783   2.079       .  S
Fe772       O788   2.040       .  S
Fe772       O782   1.969       .  S
Fe773       O791   2.041       .  S
Fe773       O778   2.093       .  S
Fe773       O785   2.079       .  S
Fe773       O774   2.071       .  S
Fe773       O782   1.968       .  S
O774        C781   1.267       .  A
O775        C789   1.279       .  A
O776        C781   1.268       .  A
O777        C780   1.266       .  A
O778        C790   1.279       .  A
O779        C792   1.267       .  A
C780        O785   1.269       .  A
O783        C786   1.269       .  A
O784        C786   1.266       .  A
O787        C792   1.268       .  A
O788        C790   1.262       .  A
C789        O791   1.262       .  A
Fe793       O809   2.061       .  S
Fe793       O799   2.058       .  S
Fe793       O806   2.056       .  S
Fe793       O798   2.061       .  S
Fe793       O804   1.964       .  S
Fe794       O797   2.094       .  S
Fe794       O801   2.070       .  S
Fe794       O805   2.079       .  S
Fe794       O810   2.041       .  S
Fe794       O804   1.969       .  S
Fe795       O813   2.041       .  S
Fe795       O800   2.093       .  S
Fe795       O807   2.079       .  S
Fe795       O796   2.071       .  S
Fe795       O804   1.968       .  S
O796        C803   1.267       .  A
O797        C811   1.279       .  A
O798        C803   1.268       .  A
O799        C802   1.266       .  A
O800        C812   1.279       .  A
O801        C814   1.267       .  A
C802        O807   1.269       .  A
C802       C1132   1.462   1_554  S
C803       C1562   1.458   1_554  S
O805        C808   1.269       .  A
O806        C808   1.266       .  A
C808       C1286   1.462       .  S
O809        C814   1.268       .  A
O810        C812   1.262       .  A
C811        O813   1.262       .  A
C811        C855   1.470       .  S
C812        C833   1.469       .  S
C814        C880   1.458       .  S
Fe815       O831   2.060       .  S
Fe815       O821   2.055       .  S
Fe815       O828   2.055       .  S
Fe815       O820   2.061       .  S
Fe815       O826   1.964       .  S
Fe816       O819   2.093       .  S
Fe816       O823   2.071       .  S
Fe816       O827   2.079       .  S
Fe816       O832   2.040       .  S
Fe816       O826   1.969       .  S
Fe817       O835   2.040       .  S
Fe817       O822   2.094       .  S
Fe817       O829   2.079       .  S
Fe817       O818   2.072       .  S
Fe817       O826   1.969       .  S
O818        C825   1.268       .  A
O819        C833   1.279       .  A
O820        C825   1.268       .  A
O821        C824   1.265       .  A
O822        C834   1.279       .  A
O823        C836   1.267       .  A
C824        O829   1.269       .  A
C824       C1578   1.462   1_554  S
O827        C830   1.269       .  A
O828        C830   1.265       .  A
O831        C836   1.268       .  A
O832        C834   1.262       .  A
C833        O835   1.262       .  A
C834        C856   1.469       .  S
C836       C1309   1.458       .  S
Fe837       O853   2.061       .  S
Fe837       O843   2.057       .  S
Fe837       O850   2.056       .  S
Fe837       O842   2.061       .  S
Fe837       O848   1.965       .  S
Fe838       O841   2.094       .  S
Fe838       O845   2.070       .  S
Fe838       O849   2.079       .  S
Fe838       O854   2.040       .  S
Fe838       O848   1.969       .  S
Fe839       O857   2.041       .  S
Fe839       O844   2.093       .  S
Fe839       O851   2.079       .  S
Fe839       O840   2.071       .  S
Fe839       O848   1.968       .  S
O840        C847   1.267       .  A
O841        C855   1.279       .  A
O842        C847   1.268       .  A
O843        C846   1.266       .  A
O844        C856   1.279       .  A
O845        C858   1.267       .  A
C846        O851   1.269       .  A
C846        C912   1.462       .  S
O849        C852   1.269       .  A
O850        C852   1.266       .  A
O853        C858   1.268       .  A
O854        C856   1.262       .  A
C855        O857   1.262       .  A
C858       C1188   1.458   1_554  S
Fe859       O875   2.061       .  S
Fe859       O865   2.058       .  S
Fe859       O872   2.056       .  S
Fe859       O864   2.061       .  S
Fe859       O870   1.965       .  S
Fe860       O863   2.094       .  S
Fe860       O867   2.070       .  S
Fe860       O871   2.079       .  S
Fe860       O876   2.040       .  S
Fe860       O870   1.969       .  S
Fe861       O879   2.041       .  S
Fe861       O866   2.093       .  S
Fe861       O873   2.079       .  S
Fe861       O862   2.071       .  S
Fe861       O870   1.968       .  S
O862        C869   1.267       .  A
O863        C877   1.279       .  A
O864        C869   1.268       .  A
O865        C868   1.266       .  A
O866        C878   1.279       .  A
O867        C880   1.267       .  A
C868        O873   1.269       .  A
C868        C934   1.462       .  S
O871        C874   1.269       .  A
O872        C874   1.266       .  A
O875        C880   1.268       .  A
O876        C878   1.262       .  A
C877        O879   1.262       .  A
C877        C921   1.470       .  S
C878        C900   1.469       .  S
Fe881       O897   2.060       .  S
Fe881       O887   2.055       .  S
Fe881       O894   2.055       .  S
Fe881       O886   2.061       .  S
Fe881       O892   1.964       .  S
Fe882       O885   2.093       .  S
Fe882       O889   2.071       .  S
Fe882       O893   2.079       .  S
Fe882       O898   2.040       .  S
Fe882       O892   1.969       .  S
Fe883       O901   2.040       .  S
Fe883       O888   2.094       .  S
Fe883       O895   2.079       .  S
Fe883       O884   2.072       .  S
Fe883       O892   1.969       .  S
O884        C891   1.268       .  A
O885        C899   1.279       .  A
O886        C891   1.268       .  A
O887        C890   1.265       .  A
O888        C900   1.279       .  A
O889        C902   1.267       .  A
C890        O895   1.269       .  A
C890       C1204   1.462   1_545  S
O893        C896   1.269       .  A
O894        C896   1.265       .  A
O897        C902   1.268       .  A
O898        C900   1.262       .  A
C899        O901   1.262       .  A
C899        C922   1.469       .  S
C902       C1331   1.458   1_545  S
Fe903       O919   2.061       .  S
Fe903       O909   2.058       .  S
Fe903       O916   2.056       .  S
Fe903       O908   2.061       .  S
Fe903       O914   1.965       .  S
Fe904       O907   2.094       .  S
Fe904       O911   2.070       .  S
Fe904       O915   2.079       .  S
Fe904       O920   2.040       .  S
Fe904       O914   1.969       .  S
Fe905       O923   2.041       .  S
Fe905       O910   2.093       .  S
Fe905       O917   2.079       .  S
Fe905       O906   2.071       .  S
Fe905       O914   1.968       .  S
O906        C913   1.267       .  A
O907        C921   1.279       .  A
O908        C913   1.268       .  A
O909        C912   1.266       .  A
O910        C922   1.279       .  A
O911        C924   1.267       .  A
C912        O917   1.269       .  A
C913       C1232   1.458   1_545  S
O915        C918   1.269       .  A
O916        C918   1.266       .  A
C918       C1352   1.462   1_545  S
O919        C924   1.268       .  A
O920        C922   1.262       .  A
C921        O923   1.262       .  A
C924        C990   1.458       .  S
Fe925       O941   2.061       .  S
Fe925       O931   2.058       .  S
Fe925       O938   2.056       .  S
Fe925       O930   2.061       .  S
Fe925       O936   1.964       .  S
Fe926       O929   2.094       .  S
Fe926       O933   2.070       .  S
Fe926       O937   2.079       .  S
Fe926       O942   2.041       .  S
Fe926       O936   1.969       .  S
Fe927       O945   2.041       .  S
Fe927       O932   2.093       .  S
Fe927       O939   2.079       .  S
Fe927       O928   2.071       .  S
Fe927       O936   1.968       .  S
O928        C935   1.267       .  A
O929        C943   1.279       .  A
O930        C935   1.268       .  A
O931        C934   1.266       .  A
O932        C944   1.279       .  A
O933        C946   1.267       .  A
C934        O939   1.269       .  A
C935       C1298   1.458       .  S
O937        C940   1.269       .  A
O938        C940   1.266       .  A
C940       C1418   1.462       .  S
O941        C946   1.268       .  A
O942        C944   1.262       .  A
C943        O945   1.262       .  A
C943        C987   1.470       .  S
C944        C965   1.469       .  S
C946       C1012   1.458       .  S
Fe947       O963   2.060       .  S
Fe947       O953   2.055       .  S
Fe947       O960   2.055       .  S
Fe947       O952   2.061       .  S
Fe947       O958   1.964       .  S
Fe948       O951   2.093       .  S
Fe948       O955   2.071       .  S
Fe948       O959   2.079       .  S
Fe948       O964   2.040       .  S
Fe948       O958   1.969       .  S
Fe949       O967   2.040       .  S
Fe949       O954   2.094       .  S
Fe949       O961   2.079       .  S
Fe949       O950   2.072       .  S
Fe949       O958   1.969       .  S
O950        C957   1.268       .  A
O951        C965   1.279       .  A
O952        C957   1.268       .  A
O953        C956   1.265       .  A
O954        C966   1.279       .  A
O955        C968   1.267       .  A
C956        O961   1.269       .  A
C956       C1314   1.462       .  S
O959        C962   1.269       .  A
O960        C962   1.265       .  A
O963        C968   1.268       .  A
O964        C966   1.262       .  A
C965        O967   1.262       .  A
C966        C988   1.469       .  S
C968       C1441   1.458       .  S
Fe969       O985   2.061       .  S
Fe969       O975   2.057       .  S
Fe969       O982   2.056       .  S
Fe969       O974   2.061       .  S
Fe969       O980   1.965       .  S
Fe970       O973   2.094       .  S
Fe970       O977   2.070       .  S
Fe970       O981   2.079       .  S
Fe970       O986   2.040       .  S
Fe970       O980   1.969       .  S
Fe971       O989   2.041       .  S
Fe971       O976   2.093       .  S
Fe971       O983   2.079       .  S
Fe971       O972   2.071       .  S
Fe971       O980   1.968       .  S
O972        C979   1.267       .  A
O973        C987   1.279       .  A
O974        C979   1.268       .  A
O975        C978   1.266       .  A
O976        C988   1.279       .  A
O977        C990   1.267       .  A
C978        O983   1.269       .  A
C978       C1044   1.462       .  S
O981        C984   1.269       .  A
O982        C984   1.266       .  A
O985        C990   1.268       .  A
O986        C988   1.262       .  A
C987        O989   1.262       .  A
Fe991      O1007   2.061       .  S
Fe991       O997   2.058       .  S
Fe991      O1004   2.056       .  S
Fe991       O996   2.061       .  S
Fe991      O1002   1.965       .  S
Fe992       O995   2.094       .  S
Fe992       O999   2.070       .  S
Fe992      O1003   2.079       .  S
Fe992      O1008   2.040       .  S
Fe992      O1002   1.969       .  S
Fe993      O1011   2.041       .  S
Fe993       O998   2.093       .  S
Fe993      O1005   2.079       .  S
Fe993       O994   2.071       .  S
Fe993      O1002   1.968       .  S
O994       C1001   1.267       .  A
O995       C1009   1.279       .  A
O996       C1001   1.268       .  A
O997       C1000   1.266       .  A
O998       C1010   1.279       .  A
O999       C1012   1.267       .  A
C1000      O1005   1.269       .  A
C1000      C1066   1.462       .  S
O1003      C1006   1.269       .  A
O1004      C1006   1.266       .  A
O1007      C1012   1.268       .  A
O1008      C1010   1.262       .  A
C1009      O1011   1.262       .  A
C1009      C1053   1.470       .  S
C1010      C1032   1.469       .  S
Fe1013     O1029   2.060       .  S
Fe1013     O1019   2.055       .  S
Fe1013     O1026   2.055       .  S
Fe1013     O1018   2.061       .  S
Fe1013     O1024   1.964       .  S
Fe1014     O1017   2.093       .  S
Fe1014     O1021   2.071       .  S
Fe1014     O1025   2.079       .  S
Fe1014     O1030   2.040       .  S
Fe1014     O1024   1.969       .  S
Fe1015     O1033   2.040       .  S
Fe1015     O1020   2.094       .  S
Fe1015     O1027   2.079       .  S
Fe1015     O1016   2.072       .  S
Fe1015     O1024   1.969       .  S
O1016      C1023   1.268       .  A
O1017      C1031   1.279       .  A
O1018      C1023   1.268       .  A
O1019      C1022   1.265       .  A
O1020      C1032   1.279       .  A
O1021      C1034   1.267       .  A
C1022      O1027   1.269       .  A
C1022      C1336   1.462   1_545  S
O1025      C1028   1.269       .  A
O1026      C1028   1.265       .  A
O1029      C1034   1.268       .  A
O1030      C1032   1.262       .  A
C1031      O1033   1.262       .  A
C1031      C1054   1.469       .  S
C1034      C1463   1.458   1_545  S
Fe1035     O1051   2.061       .  S
Fe1035     O1041   2.058       .  S
Fe1035     O1048   2.056       .  S
Fe1035     O1040   2.061       .  S
Fe1035     O1046   1.965       .  S
Fe1036     O1039   2.094       .  S
Fe1036     O1043   2.070       .  S
Fe1036     O1047   2.079       .  S
Fe1036     O1052   2.040       .  S
Fe1036     O1046   1.969       .  S
Fe1037     O1055   2.041       .  S
Fe1037     O1042   2.093       .  S
Fe1037     O1049   2.079       .  S
Fe1037     O1038   2.071       .  S
Fe1037     O1046   1.968       .  S
O1038      C1045   1.267       .  A
O1039      C1053   1.279       .  A
O1040      C1045   1.268       .  A
O1041      C1044   1.266       .  A
O1042      C1054   1.279       .  A
O1043      C1056   1.267       .  A
C1044      O1049   1.269       .  A
C1045      C1364   1.458   1_545  S
O1047      C1050   1.269       .  A
O1048      C1050   1.266       .  A
C1050      C1484   1.462   1_545  S
O1051      C1056   1.268       .  A
O1052      C1054   1.262       .  A
C1053      O1055   1.262       .  A
C1056      C1122   1.458       .  S
Fe1057     O1073   2.061       .  S
Fe1057     O1063   2.058       .  S
Fe1057     O1070   2.056       .  S
Fe1057     O1062   2.061       .  S
Fe1057     O1068   1.964       .  S
Fe1058     O1061   2.094       .  S
Fe1058     O1065   2.070       .  S
Fe1058     O1069   2.079       .  S
Fe1058     O1074   2.041       .  S
Fe1058     O1068   1.969       .  S
Fe1059     O1077   2.041       .  S
Fe1059     O1064   2.093       .  S
Fe1059     O1071   2.079       .  S
Fe1059     O1060   2.071       .  S
Fe1059     O1068   1.968       .  S
O1060      C1067   1.267       .  A
O1061      C1075   1.279       .  A
O1062      C1067   1.268       .  A
O1063      C1066   1.266       .  A
O1064      C1076   1.279       .  A
O1065      C1078   1.267       .  A
C1066      O1071   1.269       .  A
C1067      C1430   1.458       .  S
O1069      C1072   1.269       .  A
O1070      C1072   1.266       .  A
C1072      C1550   1.462       .  S
O1073      C1078   1.268       .  A
O1074      C1076   1.262       .  A
C1075      O1077   1.262       .  A
C1075      C1119   1.470       .  S
C1076      C1097   1.469       .  S
C1078      C1144   1.458       .  S
Fe1079     O1095   2.060       .  S
Fe1079     O1085   2.055       .  S
Fe1079     O1092   2.055       .  S
Fe1079     O1084   2.061       .  S
Fe1079     O1090   1.964       .  S
Fe1080     O1083   2.093       .  S
Fe1080     O1087   2.071       .  S
Fe1080     O1091   2.079       .  S
Fe1080     O1096   2.040       .  S
Fe1080     O1090   1.969       .  S
Fe1081     O1099   2.040       .  S
Fe1081     O1086   2.094       .  S
Fe1081     O1093   2.079       .  S
Fe1081     O1082   2.072       .  S
Fe1081     O1090   1.969       .  S
O1082      C1089   1.268       .  A
O1083      C1097   1.279       .  A
O1084      C1089   1.268       .  A
O1085      C1088   1.265       .  A
O1086      C1098   1.279       .  A
O1087      C1100   1.267       .  A
C1088      O1093   1.269       .  A
C1088      C1446   1.462       .  S
O1091      C1094   1.269       .  A
O1092      C1094   1.265       .  A
O1095      C1100   1.268       .  A
O1096      C1098   1.262       .  A
C1097      O1099   1.262       .  A
C1098      C1120   1.469       .  S
C1100      C1573   1.458       .  S
Fe1101     O1117   2.061       .  S
Fe1101     O1107   2.057       .  S
Fe1101     O1114   2.056       .  S
Fe1101     O1106   2.061       .  S
Fe1101     O1112   1.965       .  S
Fe1102     O1105   2.094       .  S
Fe1102     O1109   2.070       .  S
Fe1102     O1113   2.079       .  S
Fe1102     O1118   2.040       .  S
Fe1102     O1112   1.969       .  S
Fe1103     O1121   2.041       .  S
Fe1103     O1108   2.093       .  S
Fe1103     O1115   2.079       .  S
Fe1103     O1104   2.071       .  S
Fe1103     O1112   1.968       .  S
O1104      C1111   1.267       .  A
O1105      C1119   1.279       .  A
O1106      C1111   1.268       .  A
O1107      C1110   1.266       .  A
O1108      C1120   1.279       .  A
O1109      C1122   1.267       .  A
C1110      O1115   1.269       .  A
C1110      C1176   1.462       .  S
O1113      C1116   1.269       .  A
O1114      C1116   1.266       .  A
O1117      C1122   1.268       .  A
O1118      C1120   1.262       .  A
C1119      O1121   1.262       .  A
Fe1123     O1139   2.061       .  S
Fe1123     O1129   2.058       .  S
Fe1123     O1136   2.056       .  S
Fe1123     O1128   2.061       .  S
Fe1123     O1134   1.965       .  S
Fe1124     O1127   2.094       .  S
Fe1124     O1131   2.070       .  S
Fe1124     O1135   2.079       .  S
Fe1124     O1140   2.040       .  S
Fe1124     O1134   1.969       .  S
Fe1125     O1143   2.041       .  S
Fe1125     O1130   2.093       .  S
Fe1125     O1137   2.079       .  S
Fe1125     O1126   2.071       .  S
Fe1125     O1134   1.968       .  S
O1126      C1133   1.267       .  A
O1127      C1141   1.279       .  A
O1128      C1133   1.268       .  A
O1129      C1132   1.266       .  A
O1130      C1142   1.279       .  A
O1131      C1144   1.267       .  A
C1132      O1137   1.269       .  A
O1135      C1138   1.269       .  A
O1136      C1138   1.266       .  A
O1139      C1144   1.268       .  A
O1140      C1142   1.262       .  A
C1141      O1143   1.262       .  A
C1141      C1185   1.470       .  S
C1142      C1164   1.469       .  S
Fe1145     O1161   2.060       .  S
Fe1145     O1151   2.055       .  S
Fe1145     O1158   2.055       .  S
Fe1145     O1150   2.061       .  S
Fe1145     O1156   1.964       .  S
Fe1146     O1149   2.093       .  S
Fe1146     O1153   2.071       .  S
Fe1146     O1157   2.079       .  S
Fe1146     O1162   2.040       .  S
Fe1146     O1156   1.969       .  S
Fe1147     O1165   2.040       .  S
Fe1147     O1152   2.094       .  S
Fe1147     O1159   2.079       .  S
Fe1147     O1148   2.072       .  S
Fe1147     O1156   1.969       .  S
O1148      C1155   1.268       .  A
O1149      C1163   1.279       .  A
O1150      C1155   1.268       .  A
O1151      C1154   1.265       .  A
O1152      C1164   1.279       .  A
O1153      C1166   1.267       .  A
C1154      O1159   1.269       .  A
C1154      C1468   1.462   1_545  S
O1157      C1160   1.269       .  A
O1158      C1160   1.265       .  A
O1161      C1166   1.268       .  A
O1162      C1164   1.262       .  A
C1163      O1165   1.262       .  A
C1163      C1186   1.469       .  S
C1166      C1199   1.458   1_546  S
Fe1167     O1183   2.061       .  S
Fe1167     O1173   2.058       .  S
Fe1167     O1180   2.056       .  S
Fe1167     O1172   2.061       .  S
Fe1167     O1178   1.965       .  S
Fe1168     O1171   2.094       .  S
Fe1168     O1175   2.070       .  S
Fe1168     O1179   2.079       .  S
Fe1168     O1184   2.040       .  S
Fe1168     O1178   1.969       .  S
Fe1169     O1187   2.041       .  S
Fe1169     O1174   2.093       .  S
Fe1169     O1181   2.079       .  S
Fe1169     O1170   2.071       .  S
Fe1169     O1178   1.968       .  S
O1170      C1177   1.267       .  A
O1171      C1185   1.279       .  A
O1172      C1177   1.268       .  A
O1173      C1176   1.266       .  A
O1174      C1186   1.279       .  A
O1175      C1188   1.267       .  A
C1176      O1181   1.269       .  A
C1177      C1496   1.458   1_545  S
O1179      C1182   1.269       .  A
O1180      C1182   1.266       .  A
C1182      C1220   1.462   1_546  S
O1183      C1188   1.268       .  A
O1184      C1186   1.262       .  A
C1185      O1187   1.262       .  A
Fe1189     O1205   2.061       .  S
Fe1189     O1195   2.058       .  S
Fe1189     O1202   2.056       .  S
Fe1189     O1194   2.061       .  S
Fe1189     O1200   1.964       .  S
Fe1190     O1193   2.094       .  S
Fe1190     O1197   2.070       .  S
Fe1190     O1201   2.079       .  S
Fe1190     O1206   2.041       .  S
Fe1190     O1200   1.969       .  S
Fe1191     O1209   2.041       .  S
Fe1191     O1196   2.093       .  S
Fe1191     O1203   2.079       .  S
Fe1191     O1192   2.071       .  S
Fe1191     O1200   1.968       .  S
O1192      C1199   1.267       .  A
O1193      C1207   1.279       .  A
O1194      C1199   1.268       .  A
O1195      C1198   1.266       .  A
O1196      C1208   1.279       .  A
O1197      C1210   1.267       .  A
C1198      O1203   1.269       .  A
C1198      C1528   1.462   1_554  S
O1201      C1204   1.269       .  A
O1202      C1204   1.266       .  A
O1205      C1210   1.268       .  A
O1206      C1208   1.262       .  A
C1207      O1209   1.262       .  A
C1207      C1251   1.470       .  S
C1208      C1229   1.469       .  S
C1210      C1276   1.458       .  S
Fe1211     O1227   2.060       .  S
Fe1211     O1217   2.055       .  S
Fe1211     O1224   2.055       .  S
Fe1211     O1216   2.061       .  S
Fe1211     O1222   1.964       .  S
Fe1212     O1215   2.093       .  S
Fe1212     O1219   2.071       .  S
Fe1212     O1223   2.079       .  S
Fe1212     O1228   2.040       .  S
Fe1212     O1222   1.969       .  S
Fe1213     O1231   2.040       .  S
Fe1213     O1218   2.094       .  S
Fe1213     O1225   2.079       .  S
Fe1213     O1214   2.072       .  S
Fe1213     O1222   1.969       .  S
O1214      C1221   1.268       .  A
O1215      C1229   1.279       .  A
O1216      C1221   1.268       .  A
O1217      C1220   1.265       .  A
O1218      C1230   1.279       .  A
O1219      C1232   1.267       .  A
C1220      O1225   1.269       .  A
O1223      C1226   1.269       .  A
O1224      C1226   1.265       .  A
O1227      C1232   1.268       .  A
O1228      C1230   1.262       .  A
C1229      O1231   1.262       .  A
C1230      C1252   1.469       .  S
Fe1233     O1249   2.061       .  S
Fe1233     O1239   2.057       .  S
Fe1233     O1246   2.056       .  S
Fe1233     O1238   2.061       .  S
Fe1233     O1244   1.965       .  S
Fe1234     O1237   2.094       .  S
Fe1234     O1241   2.070       .  S
Fe1234     O1245   2.079       .  S
Fe1234     O1250   2.040       .  S
Fe1234     O1244   1.969       .  S
Fe1235     O1253   2.041       .  S
Fe1235     O1240   2.093       .  S
Fe1235     O1247   2.079       .  S
Fe1235     O1236   2.071       .  S
Fe1235     O1244   1.968       .  S
O1236      C1243   1.267       .  A
O1237      C1251   1.279       .  A
O1238      C1243   1.268       .  A
O1239      C1242   1.266       .  A
O1240      C1252   1.279       .  A
O1241      C1254   1.267       .  A
C1242      O1247   1.269       .  A
C1242      C1308   1.462       .  S
O1245      C1248   1.269       .  A
O1246      C1248   1.266       .  A
O1249      C1254   1.268       .  A
O1250      C1252   1.262       .  A
C1251      O1253   1.262       .  A
C1254      C1584   1.458   1_554  S
Fe1255     O1271   2.061       .  S
Fe1255     O1261   2.058       .  S
Fe1255     O1268   2.056       .  S
Fe1255     O1260   2.061       .  S
Fe1255     O1266   1.965       .  S
Fe1256     O1259   2.094       .  S
Fe1256     O1263   2.070       .  S
Fe1256     O1267   2.079       .  S
Fe1256     O1272   2.040       .  S
Fe1256     O1266   1.969       .  S
Fe1257     O1275   2.041       .  S
Fe1257     O1262   2.093       .  S
Fe1257     O1269   2.079       .  S
Fe1257     O1258   2.071       .  S
Fe1257     O1266   1.968       .  S
O1258      C1265   1.267       .  A
O1259      C1273   1.279       .  A
O1260      C1265   1.268       .  A
O1261      C1264   1.266       .  A
O1262      C1274   1.279       .  A
O1263      C1276   1.267       .  A
C1264      O1269   1.269       .  A
C1264      C1330   1.462       .  S
O1267      C1270   1.269       .  A
O1268      C1270   1.266       .  A
O1271      C1276   1.268       .  A
O1272      C1274   1.262       .  A
C1273      O1275   1.262       .  A
C1273      C1317   1.470       .  S
C1274      C1296   1.469       .  S
Fe1277     O1293   2.060       .  S
Fe1277     O1283   2.055       .  S
Fe1277     O1290   2.055       .  S
Fe1277     O1282   2.061       .  S
Fe1277     O1288   1.964       .  S
Fe1278     O1281   2.093       .  S
Fe1278     O1285   2.071       .  S
Fe1278     O1289   2.079       .  S
Fe1278     O1294   2.040       .  S
Fe1278     O1288   1.969       .  S
Fe1279     O1297   2.040       .  S
Fe1279     O1284   2.094       .  S
Fe1279     O1291   2.079       .  S
Fe1279     O1280   2.072       .  S
Fe1279     O1288   1.969       .  S
O1280      C1287   1.268       .  A
O1281      C1295   1.279       .  A
O1282      C1287   1.268       .  A
O1283      C1286   1.265       .  A
O1284      C1296   1.279       .  A
O1285      C1298   1.267       .  A
C1286      O1291   1.269       .  A
O1289      C1292   1.269       .  A
O1290      C1292   1.265       .  A
O1293      C1298   1.268       .  A
O1294      C1296   1.262       .  A
C1295      O1297   1.262       .  A
C1295      C1318   1.469       .  S
Fe1299     O1315   2.061       .  S
Fe1299     O1305   2.058       .  S
Fe1299     O1312   2.056       .  S
Fe1299     O1304   2.061       .  S
Fe1299     O1310   1.965       .  S
Fe1300     O1303   2.094       .  S
Fe1300     O1307   2.070       .  S
Fe1300     O1311   2.079       .  S
Fe1300     O1316   2.040       .  S
Fe1300     O1310   1.969       .  S
Fe1301     O1319   2.041       .  S
Fe1301     O1306   2.093       .  S
Fe1301     O1313   2.079       .  S
Fe1301     O1302   2.071       .  S
Fe1301     O1310   1.968       .  S
O1302      C1309   1.267       .  A
O1303      C1317   1.279       .  A
O1304      C1309   1.268       .  A
O1305      C1308   1.266       .  A
O1306      C1318   1.279       .  A
O1307      C1320   1.267       .  A
C1308      O1313   1.269       .  A
O1311      C1314   1.269       .  A
O1312      C1314   1.266       .  A
O1315      C1320   1.268       .  A
O1316      C1318   1.262       .  A
C1317      O1319   1.262       .  A
C1320      C1386   1.458       .  S
Fe1321     O1337   2.061       .  S
Fe1321     O1327   2.058       .  S
Fe1321     O1334   2.056       .  S
Fe1321     O1326   2.061       .  S
Fe1321     O1332   1.964       .  S
Fe1322     O1325   2.094       .  S
Fe1322     O1329   2.070       .  S
Fe1322     O1333   2.079       .  S
Fe1322     O1338   2.041       .  S
Fe1322     O1332   1.969       .  S
Fe1323     O1341   2.041       .  S
Fe1323     O1328   2.093       .  S
Fe1323     O1335   2.079       .  S
Fe1323     O1324   2.071       .  S
Fe1323     O1332   1.968       .  S
O1324      C1331   1.267       .  A
O1325      C1339   1.279       .  A
O1326      C1331   1.268       .  A
O1327      C1330   1.266       .  A
O1328      C1340   1.279       .  A
O1329      C1342   1.267       .  A
C1330      O1335   1.269       .  A
O1333      C1336   1.269       .  A
O1334      C1336   1.266       .  A
O1337      C1342   1.268       .  A
O1338      C1340   1.262       .  A
C1339      O1341   1.262       .  A
C1339      C1383   1.470       .  S
C1340      C1361   1.469       .  S
C1342      C1408   1.458       .  S
Fe1343     O1359   2.060       .  S
Fe1343     O1349   2.055       .  S
Fe1343     O1356   2.055       .  S
Fe1343     O1348   2.061       .  S
Fe1343     O1354   1.964       .  S
Fe1344     O1347   2.093       .  S
Fe1344     O1351   2.071       .  S
Fe1344     O1355   2.079       .  S
Fe1344     O1360   2.040       .  S
Fe1344     O1354   1.969       .  S
Fe1345     O1363   2.040       .  S
Fe1345     O1350   2.094       .  S
Fe1345     O1357   2.079       .  S
Fe1345     O1346   2.072       .  S
Fe1345     O1354   1.969       .  S
O1346      C1353   1.268       .  A
O1347      C1361   1.279       .  A
O1348      C1353   1.268       .  A
O1349      C1352   1.265       .  A
O1350      C1362   1.279       .  A
O1351      C1364   1.267       .  A
C1352      O1357   1.269       .  A
O1355      C1358   1.269       .  A
O1356      C1358   1.265       .  A
O1359      C1364   1.268       .  A
O1360      C1362   1.262       .  A
C1361      O1363   1.262       .  A
C1362      C1384   1.469       .  S
Fe1365     O1381   2.061       .  S
Fe1365     O1371   2.057       .  S
Fe1365     O1378   2.056       .  S
Fe1365     O1370   2.061       .  S
Fe1365     O1376   1.965       .  S
Fe1366     O1369   2.094       .  S
Fe1366     O1373   2.070       .  S
Fe1366     O1377   2.079       .  S
Fe1366     O1382   2.040       .  S
Fe1366     O1376   1.969       .  S
Fe1367     O1385   2.041       .  S
Fe1367     O1372   2.093       .  S
Fe1367     O1379   2.079       .  S
Fe1367     O1368   2.071       .  S
Fe1367     O1376   1.968       .  S
O1368      C1375   1.267       .  A
O1369      C1383   1.279       .  A
O1370      C1375   1.268       .  A
O1371      C1374   1.266       .  A
O1372      C1384   1.279       .  A
O1373      C1386   1.267       .  A
C1374      O1379   1.269       .  A
C1374      C1440   1.462       .  S
O1377      C1380   1.269       .  A
O1378      C1380   1.266       .  A
O1381      C1386   1.268       .  A
O1382      C1384   1.262       .  A
C1383      O1385   1.262       .  A
Fe1387     O1403   2.061       .  S
Fe1387     O1393   2.058       .  S
Fe1387     O1400   2.056       .  S
Fe1387     O1392   2.061       .  S
Fe1387     O1398   1.965       .  S
Fe1388     O1391   2.094       .  S
Fe1388     O1395   2.070       .  S
Fe1388     O1399   2.079       .  S
Fe1388     O1404   2.040       .  S
Fe1388     O1398   1.969       .  S
Fe1389     O1407   2.041       .  S
Fe1389     O1394   2.093       .  S
Fe1389     O1401   2.079       .  S
Fe1389     O1390   2.071       .  S
Fe1389     O1398   1.968       .  S
O1390      C1397   1.267       .  A
O1391      C1405   1.279       .  A
O1392      C1397   1.268       .  A
O1393      C1396   1.266       .  A
O1394      C1406   1.279       .  A
O1395      C1408   1.267       .  A
C1396      O1401   1.269       .  A
C1396      C1462   1.462       .  S
O1399      C1402   1.269       .  A
O1400      C1402   1.266       .  A
O1403      C1408   1.268       .  A
O1404      C1406   1.262       .  A
C1405      O1407   1.262       .  A
C1405      C1449   1.470       .  S
C1406      C1428   1.469       .  S
Fe1409     O1425   2.060       .  S
Fe1409     O1415   2.055       .  S
Fe1409     O1422   2.055       .  S
Fe1409     O1414   2.061       .  S
Fe1409     O1420   1.964       .  S
Fe1410     O1413   2.093       .  S
Fe1410     O1417   2.071       .  S
Fe1410     O1421   2.079       .  S
Fe1410     O1426   2.040       .  S
Fe1410     O1420   1.969       .  S
Fe1411     O1429   2.040       .  S
Fe1411     O1416   2.094       .  S
Fe1411     O1423   2.079       .  S
Fe1411     O1412   2.072       .  S
Fe1411     O1420   1.969       .  S
O1412      C1419   1.268       .  A
O1413      C1427   1.279       .  A
O1414      C1419   1.268       .  A
O1415      C1418   1.265       .  A
O1416      C1428   1.279       .  A
O1417      C1430   1.267       .  A
C1418      O1423   1.269       .  A
O1421      C1424   1.269       .  A
O1422      C1424   1.265       .  A
O1425      C1430   1.268       .  A
O1426      C1428   1.262       .  A
C1427      O1429   1.262       .  A
C1427      C1450   1.469       .  S
Fe1431     O1447   2.061       .  S
Fe1431     O1437   2.058       .  S
Fe1431     O1444   2.056       .  S
Fe1431     O1436   2.061       .  S
Fe1431     O1442   1.965       .  S
Fe1432     O1435   2.094       .  S
Fe1432     O1439   2.070       .  S
Fe1432     O1443   2.079       .  S
Fe1432     O1448   2.040       .  S
Fe1432     O1442   1.969       .  S
Fe1433     O1451   2.041       .  S
Fe1433     O1438   2.093       .  S
Fe1433     O1445   2.079       .  S
Fe1433     O1434   2.071       .  S
Fe1433     O1442   1.968       .  S
O1434      C1441   1.267       .  A
O1435      C1449   1.279       .  A
O1436      C1441   1.268       .  A
O1437      C1440   1.266       .  A
O1438      C1450   1.279       .  A
O1439      C1452   1.267       .  A
C1440      O1445   1.269       .  A
O1443      C1446   1.269       .  A
O1444      C1446   1.266       .  A
O1447      C1452   1.268       .  A
O1448      C1450   1.262       .  A
C1449      O1451   1.262       .  A
C1452      C1518   1.458       .  S
Fe1453     O1469   2.061       .  S
Fe1453     O1459   2.058       .  S
Fe1453     O1466   2.056       .  S
Fe1453     O1458   2.061       .  S
Fe1453     O1464   1.964       .  S
Fe1454     O1457   2.094       .  S
Fe1454     O1461   2.070       .  S
Fe1454     O1465   2.079       .  S
Fe1454     O1470   2.041       .  S
Fe1454     O1464   1.969       .  S
Fe1455     O1473   2.041       .  S
Fe1455     O1460   2.093       .  S
Fe1455     O1467   2.079       .  S
Fe1455     O1456   2.071       .  S
Fe1455     O1464   1.968       .  S
O1456      C1463   1.267       .  A
O1457      C1471   1.279       .  A
O1458      C1463   1.268       .  A
O1459      C1462   1.266       .  A
O1460      C1472   1.279       .  A
O1461      C1474   1.267       .  A
C1462      O1467   1.269       .  A
O1465      C1468   1.269       .  A
O1466      C1468   1.266       .  A
O1469      C1474   1.268       .  A
O1470      C1472   1.262       .  A
C1471      O1473   1.262       .  A
C1471      C1515   1.470       .  S
C1472      C1493   1.469       .  S
C1474      C1540   1.458       .  S
Fe1475     O1491   2.060       .  S
Fe1475     O1481   2.055       .  S
Fe1475     O1488   2.055       .  S
Fe1475     O1480   2.061       .  S
Fe1475     O1486   1.964       .  S
Fe1476     O1479   2.093       .  S
Fe1476     O1483   2.071       .  S
Fe1476     O1487   2.079       .  S
Fe1476     O1492   2.040       .  S
Fe1476     O1486   1.969       .  S
Fe1477     O1495   2.040       .  S
Fe1477     O1482   2.094       .  S
Fe1477     O1489   2.079       .  S
Fe1477     O1478   2.072       .  S
Fe1477     O1486   1.969       .  S
O1478      C1485   1.268       .  A
O1479      C1493   1.279       .  A
O1480      C1485   1.268       .  A
O1481      C1484   1.265       .  A
O1482      C1494   1.279       .  A
O1483      C1496   1.267       .  A
C1484      O1489   1.269       .  A
O1487      C1490   1.269       .  A
O1488      C1490   1.265       .  A
O1491      C1496   1.268       .  A
O1492      C1494   1.262       .  A
C1493      O1495   1.262       .  A
C1494      C1516   1.469       .  S
Fe1497     O1513   2.061       .  S
Fe1497     O1503   2.057       .  S
Fe1497     O1510   2.056       .  S
Fe1497     O1502   2.061       .  S
Fe1497     O1508   1.965       .  S
Fe1498     O1501   2.094       .  S
Fe1498     O1505   2.070       .  S
Fe1498     O1509   2.079       .  S
Fe1498     O1514   2.040       .  S
Fe1498     O1508   1.969       .  S
Fe1499     O1517   2.041       .  S
Fe1499     O1504   2.093       .  S
Fe1499     O1511   2.079       .  S
Fe1499     O1500   2.071       .  S
Fe1499     O1508   1.968       .  S
O1500      C1507   1.267       .  A
O1501      C1515   1.279       .  A
O1502      C1507   1.268       .  A
O1503      C1506   1.266       .  A
O1504      C1516   1.279       .  A
O1505      C1518   1.267       .  A
C1506      O1511   1.269       .  A
C1506      C1572   1.462       .  S
O1509      C1512   1.269       .  A
O1510      C1512   1.266       .  A
O1513      C1518   1.268       .  A
O1514      C1516   1.262       .  A
C1515      O1517   1.262       .  A
Fe1519     O1535   2.061       .  S
Fe1519     O1525   2.058       .  S
Fe1519     O1532   2.056       .  S
Fe1519     O1524   2.061       .  S
Fe1519     O1530   1.965       .  S
Fe1520     O1523   2.094       .  S
Fe1520     O1527   2.070       .  S
Fe1520     O1531   2.079       .  S
Fe1520     O1536   2.040       .  S
Fe1520     O1530   1.969       .  S
Fe1521     O1539   2.041       .  S
Fe1521     O1526   2.093       .  S
Fe1521     O1533   2.079       .  S
Fe1521     O1522   2.071       .  S
Fe1521     O1530   1.968       .  S
O1522      C1529   1.267       .  A
O1523      C1537   1.279       .  A
O1524      C1529   1.268       .  A
O1525      C1528   1.266       .  A
O1526      C1538   1.279       .  A
O1527      C1540   1.267       .  A
C1528      O1533   1.269       .  A
O1531      C1534   1.269       .  A
O1532      C1534   1.266       .  A
O1535      C1540   1.268       .  A
O1536      C1538   1.262       .  A
C1537      O1539   1.262       .  A
C1537      C1581   1.470       .  S
C1538      C1560   1.469       .  S
Fe1541     O1557   2.060       .  S
Fe1541     O1547   2.055       .  S
Fe1541     O1554   2.055       .  S
Fe1541     O1546   2.061       .  S
Fe1541     O1552   1.964       .  S
Fe1542     O1545   2.093       .  S
Fe1542     O1549   2.071       .  S
Fe1542     O1553   2.079       .  S
Fe1542     O1558   2.040       .  S
Fe1542     O1552   1.969       .  S
Fe1543     O1561   2.040       .  S
Fe1543     O1548   2.094       .  S
Fe1543     O1555   2.079       .  S
Fe1543     O1544   2.072       .  S
Fe1543     O1552   1.969       .  S
O1544      C1551   1.268       .  A
O1545      C1559   1.279       .  A
O1546      C1551   1.268       .  A
O1547      C1550   1.265       .  A
O1548      C1560   1.279       .  A
O1549      C1562   1.267       .  A
C1550      O1555   1.269       .  A
O1553      C1556   1.269       .  A
O1554      C1556   1.265       .  A
O1557      C1562   1.268       .  A
O1558      C1560   1.262       .  A
C1559      O1561   1.262       .  A
C1559      C1582   1.469       .  S
Fe1563     O1579   2.061       .  S
Fe1563     O1569   2.058       .  S
Fe1563     O1576   2.056       .  S
Fe1563     O1568   2.061       .  S
Fe1563     O1574   1.965       .  S
Fe1564     O1567   2.094       .  S
Fe1564     O1571   2.070       .  S
Fe1564     O1575   2.079       .  S
Fe1564     O1580   2.040       .  S
Fe1564     O1574   1.969       .  S
Fe1565     O1583   2.041       .  S
Fe1565     O1570   2.093       .  S
Fe1565     O1577   2.079       .  S
Fe1565     O1566   2.071       .  S
Fe1565     O1574   1.968       .  S
O1566      C1573   1.267       .  A
O1567      C1581   1.279       .  A
O1568      C1573   1.268       .  A
O1569      C1572   1.266       .  A
O1570      C1582   1.279       .  A
O1571      C1584   1.267       .  A
C1572      O1577   1.269       .  A
O1575      C1578   1.269       .  A
O1576      C1578   1.266       .  A
O1579      C1584   1.268       .  A
O1580      C1582   1.262       .  A
C1581      O1583   1.262       .  A
