geometry optimzed in LAMMPS
_audit_creation_date              2020-12-01 
_audit_creation_method            'lammps2cif' 
_symmetry_space_group_name_H-M    'P1' 
_symmetry_Int_Tables_number       1 
_symmetry_cell_setting            triclinic 
loop_ 
_symmetry_equiv_pos_as_xyz 
  x,y,z 
_cell_length_a                    42.61727433 
_cell_length_b                    42.59534444349061 
_cell_length_c                    105.13425726634486 
_cell_angle_alpha                 90.06599131330081 
_cell_angle_beta                  89.85598749275607 
_cell_angle_gamma                 119.75090990064122 
loop_ 
_atom_site_label 
_atom_site_type_symbol 
_atom_site_fract_x 
_atom_site_fract_y 
_atom_site_fract_z 
_atom_site_charge 
Zn1        Zn  0.18778341  0.30641889  0.37385901     1.49700
Zn2        Zn  0.16534059  0.33503314  0.39808418     1.49400
Zn3        Zn  0.19442886  0.38501427  0.37391874     1.49100
Zn4        Zn  0.11631485  0.31323544  0.37355516     1.49500
O5          O  0.16599126  0.33493711  0.37975878    -1.83700
O6          O  0.20507474  0.28784152  0.38849997    -0.74300
O7          O  0.18970263  0.38511652  0.40512750    -0.74200
O8          O  0.23602721  0.39155567  0.36297846    -0.73700
O9          O  0.19131129  0.31090839  0.40507845    -0.74400
O10         O  0.23040655  0.33698551  0.36280608    -0.74000
O11         O  0.21248448  0.42122703  0.38844318    -0.74500
O12         O  0.10965722  0.34844969  0.36290009    -0.73900
O13         O  0.11496482  0.30938018  0.40478954    -0.74700
O14         O  0.16453696  0.39654829  0.36229890    -0.74100
O15         O  0.07947894  0.29424105  0.38786634    -0.74500
O16         O  0.10636712  0.27352992  0.36119124    -0.74500
O17         O  0.15450401  0.26653206  0.36194567    -0.74200
C18         C  0.20549302  0.29328157  0.40045035     0.77500
C19         C  0.20774552  0.41664737  0.40042430     0.78000
C20         C  0.24602016  0.36961454  0.35901643     0.77000
C21         C  0.13180002  0.37972008  0.35863402     0.77400
C22         C  0.08362074  0.29479606  0.39988970     0.78500
C23         C  0.12390220  0.25847154  0.35722120     0.77600
Zn24       Zn  0.44984642  0.47647853  0.25930399     1.49700
Zn25       Zn  0.02756618  0.05051333  0.25819283     1.49400
Zn26       Zn  0.50185404  0.50312397  0.28249821     1.49100
Zn27       Zn  0.02457990  0.47359689  0.25915344     1.49500
O28         O  0.50083240  0.50083329  0.26443214    -1.83700
O29         O  0.44040463  0.01043965  0.24870711    -0.74300
O30         O  0.04514547  0.08799998  0.27247749    -0.74200
O31         O  0.45435761  0.47170087  0.29008276    -0.73700
O32         O  0.49475835  0.05937871  0.24690596    -0.74400
O33         O  0.41476249  0.45692431  0.27444721    -0.74000
O34         O  0.01866406  0.05213267  0.28900022    -0.74500
O35         O  0.04412715  0.45825789  0.27411687    -0.73900
O36         O  0.07070359  0.05803151  0.24790171    -0.74700
O37         O  0.03432661  0.48768425  0.28959379    -0.74100
O38         O  0.06745136  0.00438976  0.24795195    -0.74500
O39         O  0.49004621  0.43035107  0.24893340    -0.74500
O40         O  0.43986089  0.43406446  0.24818144    -0.74200
C41         C  0.46121150  0.04190269  0.24418104     0.77500
C42         C  0.03716644  0.08346274  0.28426995     0.78000
C43         C  0.42201871  0.45617581  0.28616952     0.77000
C44         C  0.04786054  0.46891200  0.28562451     0.77400
C45         C  0.08295114  0.03739334  0.24451913     0.78500
C46         C  0.45784792  0.41869016  0.24501928     0.77600
C47         C  0.16588348  0.33317055  0.81185534     0.45900
H48         H  0.16621215  0.33442575  0.82240618    -0.03200
C49         C  0.16532311  0.33054666  0.78701684     0.45900
H50         H  0.16515403  0.32907805  0.77645667    -0.03200
C51         C  0.14665446  0.35199489  0.80548160    -0.16800
C52         C  0.20406277  0.35176673  0.80568818    -0.16600
C53         C  0.14636858  0.29419483  0.80631951    -0.17000
C54         C  0.14571887  0.34940892  0.79239757    -0.17000
C55         C  0.20319165  0.35031122  0.79265763    -0.16500
C56         C  0.14690481  0.29355232  0.79327496    -0.16800
C57         C  0.49965013  0.00084782  0.83212889     0.45900
H58         H  0.50113591  0.00211204  0.82158137    -0.03200
C59         C  0.49599782  0.99806379  0.85693677     0.45900
H60         H  0.49394314  0.99640458  0.86747951    -0.03200
C61         C  0.01821122  0.03857442  0.83872949    -0.16800
C62         C  0.46054177  0.48196028  0.83745837    -0.16600
C63         C  0.01731337  0.48016521  0.83831387    -0.17000
C64         C  0.01712427  0.03643159  0.85180040    -0.17000
C65         C  0.45929361  0.48106421  0.85046036    -0.16500
C66         C  0.01467504  0.47873273  0.85135869    -0.16800
C67         C  0.16635213  0.33678026  0.50007282     0.45900
H68         H  0.16717585  0.33808415  0.48952265    -0.03200
C69         C  0.16440638  0.33359968  0.52489603     0.45900
H70         H  0.16347277  0.33226119  0.53546029    -0.03200
C71         C  0.18665909  0.31825965  0.50588939    -0.16800
C72         C  0.18342096  0.37438100  0.50668091    -0.16600
C73         C  0.12752492  0.31544905  0.50573153    -0.17000
C74         C  0.18485854  0.31646906  0.51893587    -0.17000
C75         C  0.18260379  0.37204232  0.51972835    -0.16500
C76         C  0.12719370  0.31428550  0.51878393    -0.16800
C77         C  0.33165025  0.16859966  0.45386203     0.45900
H78         H  0.33078004  0.16836152  0.44328739    -0.03200
C79         C  0.33334510  0.16897273  0.47869257     0.45900
H80         H  0.33399327  0.16908720  0.48924965    -0.03200
C81         C  0.31433735  0.18876248  0.45985540    -0.16800
C82         C  0.31220371  0.13102468  0.45967955    -0.16600
C83         C  0.36975512  0.18658097  0.45922630    -0.17000
C84         C  0.31504888  0.18957721  0.47291657    -0.17000
C85         C  0.31235501  0.13045164  0.47273607    -0.16500
C86         C  0.37144145  0.18665584  0.47230540    -0.16800
Zn87       Zn  0.33195080  0.16649914  0.58004250     1.49700
Zn88       Zn  0.30295879  0.18822792  0.60401829     1.49400
Zn89       Zn  0.31427911  0.11911375  0.60497305     1.49100
Zn90       Zn  0.38282310  0.19841858  0.60383869     1.49500
O91         O  0.33295781  0.16807828  0.59835157    -1.83700
O92         O  0.30598679  0.19012907  0.57261203    -0.74300
O93         O  0.26372535  0.15390243  0.61584032    -0.74200
O94         O  0.29419373  0.08125876  0.59102305    -0.73700
O95         O  0.28151038  0.20167541  0.58928207    -0.74400
O96         O  0.30638661  0.11607395  0.57402521    -0.74000
O97         O  0.27467634  0.10821972  0.61746214    -0.74500
O98         O  0.39717950  0.17153564  0.61600926    -0.73900
O99         O  0.33271613  0.23277629  0.61444041    -0.74700
O100        O  0.35209516  0.11490004  0.61510786    -0.74100
O101        O  0.38855321  0.24151430  0.61346733    -0.74500
O102        O  0.41762863  0.21418864  0.58909781    -0.74500
O103        O  0.38123270  0.18966913  0.57261416    -0.74200
C104        C  0.28623849  0.20182676  0.57730629     0.77500
C105        C  0.25728502  0.12402332  0.62080014     0.78000
C106        C  0.29284308  0.08497025  0.57904035     0.77000
C107        C  0.38278068  0.13859307  0.61939111     0.77400
C108        C  0.36598911  0.25062476  0.61745525     0.78500
C109        C  0.41280584  0.20783822  0.57721909     0.77600
Zn110      Zn  0.45001773  0.48034975  0.70726822     1.49700
Zn111      Zn  0.01955878  0.46933181  0.70723704     1.49400
Zn112      Zn  0.02943284  0.04924609  0.70767999     1.49100
Zn113      Zn  0.99881580  0.99827106  0.73159946     1.49500
O114        O  0.99954587  0.99926824  0.71329721    -1.83700
O115        O  0.43806918  0.44027378  0.69493778    -0.74300
O116        O  0.06429325  0.99947996  0.69679136    -0.74200
O117        O  0.50156572  0.06324424  0.69572936    -0.73700
O118        O  0.48490157  0.43097411  0.69524589    -0.74400
O119        O  0.44534557  0.01744404  0.69680473    -0.74000
O120        O  0.07181676  0.05484357  0.69758052    -0.74500
O121        O  0.02483012  0.04750212  0.73905187    -0.73900
O122        O  0.03311188  0.44682892  0.72171553    -0.74700
O123        O  0.04738406  0.08414884  0.72246706    -0.74100
O124        O  0.02168401  0.47137352  0.73839003    -0.74500
O125        O  0.44876518  0.47324411  0.73833800    -0.74500
O126        O  0.41306289  0.46068893  0.72161188    -0.74200
C127        C  0.45416037  0.42380973  0.69091191     0.77500
C128        C  0.08151240  0.03268518  0.69362199     0.78000
C129        C  0.46857963  0.04811490  0.69233995     0.77000
C130        C  0.04314675  0.07907813  0.73443863     0.77400
C131        C  0.03338446  0.45170182  0.73369128     0.78500
C132        C  0.41737200  0.45945687  0.73356707     0.77600
C133        C  0.33544438  0.16890289  0.16604130     0.45900
H134        H  0.33531663  0.16882013  0.15548097    -0.03200
C135        C  0.33570068  0.16889262  0.19088820     0.45900
H136        H  0.33586816  0.16892734  0.20146827    -0.03200
C137        C  0.29711711  0.14772102  0.17219375    -0.16800
C138        C  0.35695135  0.15185528  0.17204251    -0.16600
C139        C  0.35257548  0.20732090  0.17201917    -0.17000
C140        C  0.29796992  0.14839233  0.18526269    -0.17000
C141        C  0.35604912  0.15155214  0.18509858    -0.16500
C142        C  0.35289352  0.20655062  0.18507839    -0.16800
C143        C  0.50251982  0.00264118  0.12018543     0.45900
H144        H  0.50224566  0.00253658  0.10960421    -0.03200
C145        C  0.50286816  0.00274694  0.14502633     0.45900
H146        H  0.00295959  0.00286474  0.15561422    -0.03200
C147        C  0.48510782  0.02291664  0.12597229    -0.16800
C148        C  0.48232283  0.46507907  0.12600225    -0.16600
C149        C  0.04030129  0.02003328  0.12584069    -0.17000
C150        C  0.48547905  0.02389579  0.13903431    -0.17000
C151        C  0.48162761  0.46426489  0.13906203    -0.16500
C152        C  0.04119073  0.02005393  0.13892365    -0.16800
Zn153      Zn  0.21780461  0.36179930  0.93612393     1.49700
Zn154      Zn  0.16496938  0.33186823  0.91223444     1.49400
Zn155      Zn  0.14414472  0.28446282  0.93722261     1.49100
Zn156      Zn  0.14205150  0.35899364  0.93654396     1.49500
O157        O  0.16726131  0.33419895  0.93061291    -1.83700
O158        O  0.25181794  0.37519574  0.92118494    -0.74300
O159        O  0.14140724  0.28099256  0.90609662    -0.74200
O160        O  0.17825543  0.27898189  0.94894662    -0.73700
O161        O  0.21435548  0.35565391  0.90474762    -0.74400
O162        O  0.22847482  0.33237353  0.94837418    -0.74000
O163        O  0.12823100  0.24651064  0.92321468    -0.74500
O164        O  0.10316144  0.32742948  0.94868016    -0.73900
O165        O  0.13761382  0.35481545  0.90504590    -0.74700
O166        O  0.10186139  0.27459142  0.94847594    -0.74100
O167        O  0.12061215  0.37341247  0.92205687    -0.74500
O168        O  0.17438157  0.40222520  0.94718063    -0.74500
O169        O  0.22831722  0.40635501  0.94631208    -0.74200
C170        C  0.24619168  0.37085183  0.90924238     0.77500
C171        C  0.12892063  0.24999060  0.91115288     0.78000
C172        C  0.21024307  0.30042801  0.95276497     0.77000
C173        C  0.09047511  0.29520159  0.95266995     0.77400
C174        C  0.12119566  0.36989186  0.91003143     0.78500
C175        C  0.20734378  0.41723885  0.95054807     0.77600
Zn176      Zn  0.36093547  0.14458265  0.04044446     1.49700
Zn177      Zn  0.28654741  0.14730462  0.03997066     1.49400
Zn178      Zn  0.33541316  0.16981357  0.06476288     1.49100
Zn179      Zn  0.36252556  0.22062178  0.04100692     1.49500
O180        O  0.33620390  0.17033834  0.04641447    -1.83700
O181        O  0.32899925  0.10428900  0.02841232    -0.74300
O182        O  0.24987962  0.12617305  0.05438283    -0.74200
O183        O  0.36190002  0.14641501  0.07182780    -0.73700
O184        O  0.27885749  0.10795648  0.02753334    -0.74400
O185        O  0.37713629  0.12514013  0.05511455    -0.74000
O186        O  0.28535440  0.14243538  0.07132540    -0.74500
O187        O  0.37862529  0.25587162  0.05554551    -0.73900
O188        O  0.27779015  0.18268434  0.02980493    -0.74700
O189        O  0.35702671  0.21922751  0.07210438    -0.74100
O190        O  0.33193653  0.23186121  0.02986555    -0.74500
O191        O  0.40463806  0.22980989  0.03018352    -0.74500
O192        O  0.40451895  0.17760888  0.02990219    -0.74200
C193        C  0.29778341  0.09407223  0.02378672     0.77500
C194        C  0.25406019  0.12671425  0.06641461     0.78000
C195        C  0.37626270  0.12907685  0.06711719     0.77000
C196        C  0.37346686  0.25090692  0.06747229     0.77400
C197        C  0.29936384  0.21489389  0.02612559     0.78500
C198        C  0.41761153  0.21028761  0.02631849     0.77600
C199        C  0.30019635  0.27127234  0.99819795    -0.27200
C200        C  0.26321793  0.25837430  0.99638930     0.02400
C201        C  0.23825997  0.23347499  0.00520339     0.30500
C202        C  0.25029408  0.22021652  0.01511468    -0.19000
C203        C  0.28726611  0.23230391  0.01666579    -0.28400
C204        C  0.31235880  0.25904545  0.00833005     0.44500
C205        C  0.25093403  0.26942873  0.98490716     0.05700
O206        O  0.20196508  0.22134521  0.00406667    -0.56900
H207        H  0.23061323  0.20009599  0.02150125     0.18700
O208        O  0.34875056  0.27155205  0.00938760    -0.63600
H209        H  0.31981376  0.28990988  0.99144758     0.17100
C210        C  0.26679572  0.30598652  0.98123737     0.29400
C211        C  0.25421342  0.31545627  0.97044135    -0.24500
C212        C  0.22578917  0.28896487  0.96313125    -0.23800
C213        C  0.21082924  0.25229991  0.96657813     0.40800
C214        C  0.22352540  0.24285173  0.97732600    -0.26300
O215        O  0.29311628  0.33281067  0.98854576    -0.58100
H216        H  0.26594964  0.34384939  0.96808374     0.16400
O217        O  0.18339770  0.22542457  0.95965722    -0.59600
H218        H  0.21181849  0.21450966  0.97975205     0.14900
H219        H  0.35827993  0.29412546  0.01443768     0.46700
H220        H  0.31565205  0.34247869  0.98345334     0.42100
H221        H  0.19559649  0.21931775  0.95284126     0.45600
H222        H  0.19817024  0.24012792  0.00821135     0.37100
C223        C  0.21039427  0.46892006  0.98029404    -0.27200
C224        C  0.24683502  0.49589524  0.98074663     0.02400
C225        C  0.27020867  0.49800128  0.97085136     0.30500
C226        C  0.25709486  0.47285409  0.96084810    -0.19000
C227        C  0.22053807  0.44580360  0.96042308    -0.28400
C228        C  0.19719518  0.44407387  0.97029725     0.44500
C229        C  0.25981799  0.02091822  0.99179031     0.05700
O230        O  0.30580051  0.02432815  0.97094980    -0.56900
H231        H  0.27553052  0.47444060  0.95343381     0.18700
O232        O  0.16167766  0.41718877  0.97059746    -0.63600
H233        H  0.19220312  0.46645518  0.98793632     0.17100
C234        C  0.24300626  0.04099847  0.99520917     0.29400
C235        C  0.25506769  0.06382424  0.00581908    -0.24500
C236        C  0.28387738  0.06708822  0.01329119    -0.23800
C237        C  0.30029589  0.04638977  0.00996803     0.40800
C238        C  0.28831505  0.02370383  0.99928086    -0.26300
O239        O  0.21583568  0.03976070  0.98786684    -0.58100
H240        H  0.24224321  0.07969367  0.00799334     0.16400
O241        O  0.32821153  0.04821983  0.01700332    -0.59600
H242        H  0.30108463  0.00789812  0.99691023     0.14900
H243        H  0.16166390  0.39669230  0.97507550     0.46700
H244        H  0.19335145  0.02549147  0.99286306     0.42100
H245        H  0.31652068  0.02914243  0.02357474     0.45600
H246        H  0.30655201  0.04524493  0.96652801     0.37100
C247        C  0.01543925  0.23534309  0.97550318    -0.27200
C248        C  0.01917410  0.26064183  0.98479372     0.02400
C249        C  0.04558811  0.29715770  0.98328684     0.30500
C250        C  0.06776371  0.30803370  0.97253167    -0.19000
C251        C  0.06419343  0.28283193  0.96320260    -0.28400
C252        C  0.03772974  0.24622980  0.96472797     0.44500
C253        C  0.49460701  0.24899589  0.99585639     0.05700
O254        O  0.05099019  0.32197817  0.99259068    -0.56900
H255        H  0.08860793  0.33614788  0.97169600     0.18700
O256        O  0.03335392  0.22098267  0.95575683    -0.63600
H257        H  0.49488839  0.20719122  0.97657429     0.17100
C258        C  0.47120989  0.26292868  0.99779602     0.29400
C259        C  0.44776250  0.25142984  0.00818591    -0.24500
C260        C  0.44642952  0.22520309  0.01660616    -0.23800
C261        C  0.47013387  0.21144708  0.01472303     0.40800
C262        C  0.49401596  0.22337826  0.00437201    -0.26300
O263        O  0.47020342  0.28690152  0.98933147    -0.58100
H264        H  0.42933821  0.26188136  0.00929088     0.16400
O265        O  0.46990019  0.18609885  0.02281328    -0.59600
H266        H  0.01210860  0.21257929  0.00296301     0.14900
H267        H  0.01688642  0.22195121  0.94931764     0.46700
H268        H  0.45237784  0.27169668  0.98278427     0.42100
H269        H  0.48625536  0.20017359  0.02987677     0.45600
H270        H  0.04207465  0.33758736  0.98896399     0.37100
C271        C  0.45806692  0.37695568  0.10961584    -0.27200
C272        C  0.43177795  0.37425893  0.10098564     0.02400
C273        C  0.42181135  0.40115618  0.10075454     0.30500
C274        C  0.43826577  0.43042724  0.10911154    -0.19000
C275        C  0.46460758  0.43313943  0.11768483    -0.28400
C276        C  0.47482789  0.40644633  0.11783987     0.44500
C277        C  0.41511292  0.34311920  0.09229411     0.05700
O278        O  0.39510754  0.39823405  0.09274657    -0.56900
H279        H  0.43034282  0.45098915  0.10895726     0.18700
O280        O  0.50148415  0.40923386  0.12583032    -0.63600
H281        H  0.46604766  0.35644226  0.10978993     0.17100
C282        C  0.41907812  0.34782807  0.07903764     0.29400
C283        C  0.40495111  0.31764079  0.07105454    -0.24500
C284        C  0.38684863  0.28243122  0.07612100    -0.23800
C285        C  0.38214549  0.27799682  0.08945584     0.40800
C286        C  0.39658081  0.30821834  0.09739147    -0.26300
O287        O  0.43741362  0.38177250  0.07380677    -0.58100
H288        H  0.40870012  0.32190257  0.06088029     0.16400
O289        O  0.36417739  0.24434246  0.09491772    -0.59600
H290        H  0.39338259  0.30441294  0.10760383     0.14900
H291        H  0.52451850  0.42558548  0.12142474     0.46700
H292        H  0.46332247  0.38881481  0.07429507     0.42100
H293        H  0.33868719  0.23868416  0.09565247     0.45600
H294        H  0.40754938  0.41752583  0.08629109     0.37100
C295        C  0.40786757  0.10298711  0.09709515    -0.27200
C296        C  0.42288995  0.08303888  0.09200587     0.02400
C297        C  0.42216839  0.07769566  0.07879510     0.30500
C298        C  0.40682569  0.09269830  0.07080284    -0.19000
C299        C  0.39209207  0.11321962  0.07581825    -0.28400
C300        C  0.39251177  0.11800252  0.08916994     0.44500
C301        C  0.43896895  0.06772517  0.10066097     0.05700
O302        O  0.43505403  0.05659959  0.07370047    -0.56900
H303        H  0.40639453  0.08807896  0.06065513     0.18700
O304        O  0.37854083  0.13771323  0.09462851    -0.63600
H305        H  0.40825799  0.10711790  0.10728380     0.17100
C306        C  0.47619594  0.07964223  0.10027555     0.29400
C307        C  0.49092794  0.06520753  0.10876141    -0.24500
C308        C  0.46889833  0.03897379  0.11766071    -0.23800
C309        C  0.43159615  0.02677631  0.11798160     0.40800
C310        C  0.41689229  0.04139100  0.10953875    -0.26300
O311        O  0.49844541  0.10628236  0.09194992    -0.58100
H312        H  0.51964803  0.07453209  0.10841771     0.16400
O313        O  0.40920867  0.49918835  0.12599742    -0.59600
H314        H  0.38810951  0.03178903  0.10978389     0.14900
H315        H  0.35331046  0.11972695  0.09695272     0.46700
H316        H  0.50625090  0.09417907  0.08565039     0.42100
H317        H  0.39786949  0.50948043  0.13162414     0.45600
H318        H  0.45736494  0.07351517  0.06902492     0.37100
C319        C  0.19584530  0.09071495  0.09614008    -0.27200
C320        C  0.16135968  0.07915876  0.09122411     0.02400
C321        C  0.15710728  0.08248223  0.07812402     0.30500
C322        C  0.18740495  0.09757564  0.07010489    -0.19000
C323        C  0.22218309  0.10936372  0.07498261    -0.28400
C324        C  0.22608105  0.10541771  0.08817159     0.44500
C325        C  0.13016211  0.06402535  0.09997267     0.05700
O326        O  0.12368878  0.07272060  0.07321897    -0.56900
H327        H  0.18364480  0.10058905  0.06008508     0.18700
O328        O  0.25928647  0.11617805  0.09346939    -0.63600
H329        H  0.19929516  0.08814197  0.10622734     0.17100
C330        C  0.10317687  0.02748562  0.09920118     0.29400
C331        C  0.07449114  0.01342845  0.10788577    -0.24500
C332        C  0.07220532  0.03550917  0.11731754    -0.23800
C333        C  0.09884674  0.07230589  0.11790933     0.40800
C334        C  0.12793755  0.08616679  0.10940344    -0.26300
O335        O  0.10544836  0.00510739  0.09030158    -0.58100
H336        H  0.05391210  0.48513969  0.10724137     0.16400
O337        O  0.09636416  0.09508762  0.12655917    -0.59600
H338        H  0.14853366  0.11441750  0.11001389     0.14900
H339        H  0.26223856  0.09451265  0.09316092     0.46700
H340        H  0.08628764  0.50024285  0.08396669     0.42100
H341        H  0.07884599  0.10142615  0.12285760     0.45600
H342        H  0.11703871  0.05099000  0.06794676     0.37100
C343        C  0.42385839  0.04746101  0.15791292    -0.27200
C344        C  0.43645871  0.08334434  0.15391725     0.02400
C345        C  0.46840237  0.10070154  0.14663075     0.30500
C346        C  0.48602301  0.08183992  0.14291238    -0.19000
C347        C  0.47209218  0.04527699  0.14613813    -0.28400
C348        C  0.44152831  0.02846273  0.15409956     0.44500
C349        C  0.41640498  0.10266087  0.15732333     0.05700
O350        O  0.48177606  0.13567109  0.14259520    -0.56900
H351        H  0.50959354  0.09521964  0.13680990     0.18700
O352        O  0.42776003  0.49307372  0.15771891    -0.63600
H353        H  0.39985177  0.03392795  0.16379023     0.17100
C354        C  0.37983402  0.08886155  0.15392760     0.29400
C355        C  0.36125842  0.10700704  0.15768471    -0.24500
C356        C  0.37861743  0.13871653  0.16497048    -0.23800
C357        C  0.41579722  0.15369568  0.16762862     0.40800
C358        C  0.43423062  0.13561027  0.16391687    -0.26300
O359        O  0.36212807  0.05777571  0.14687975    -0.58100
H360        H  0.33273475  0.09511841  0.15557611     0.16400
O361        O  0.43386082  0.18498702  0.17455923    -0.59600
H362        H  0.46237465  0.14687487  0.16652187     0.14900
H363        H  0.41084419  0.47854355  0.15085134     0.46700
H364        H  0.34733758  0.03848300  0.15308583     0.42100
H365        H  0.43998996  0.20479308  0.16838608     0.45600
H366        H  0.46856022  0.13382490  0.13462414     0.37100
C367        C  0.45799239  0.37803676  0.15728374    -0.27200
C368        C  0.42175131  0.35532715  0.15360561     0.02400
C369        C  0.40435932  0.37068518  0.14669749     0.30500
C370        C  0.42333784  0.40727427  0.14315785    -0.19000
C371        C  0.46013727  0.42936128  0.14612846    -0.28400
C372        C  0.47705531  0.41477462  0.15366183     0.44500
C373        C  0.40219296  0.31583789  0.15697641     0.01500
O374        O  0.36923720  0.34972669  0.14280301    -0.56900
H375        H  0.40981864  0.41794282  0.13734106     0.18700
O376        O  0.01293319  0.43536455  0.15668660    -0.63600
H377        H  0.47177446  0.36706239  0.16278850     0.17100
C378        C  0.41628171  0.29291462  0.15384142     0.29400
C379        C  0.39821426  0.25638973  0.15773707    -0.24500
C380        C  0.36616022  0.24217277  0.16489085    -0.23800
C381        C  0.35092606  0.26442227  0.16727031     0.40800
C382        C  0.36890699  0.30076332  0.16341457    -0.26300
O383        O  0.44823435  0.30616631  0.14729251    -0.58100
H384        H  0.41048843  0.23984084  0.15588460     0.16400
O385        O  0.31933255  0.25136938  0.17403634    -0.59600
H386        H  0.35732396  0.31758922  0.16585824     0.14900
H387        H  0.01335114  0.44767063  0.16475027     0.46700
H388        H  0.44185562  0.30650941  0.13824632     0.42100
H389        H  0.29983973  0.23968868  0.16763180     0.45600
H390        H  0.37083658  0.34116056  0.13417601     0.37100
C391        C  0.20402211  0.07149733  0.16360206    -0.27200
C392        C  0.18845709  0.09011598  0.15772782     0.02400
C393        C  0.21081781  0.12732148  0.15505472     0.30500
C394        C  0.24744549  0.14542184  0.15870934    -0.19000
C395        C  0.26226322  0.12702450  0.16518168    -0.28400
C396        C  0.24047470  0.08950189  0.16720926     0.44500
C397        C  0.14928511  0.07010135  0.15411148     0.05700
O398        O  0.19695573  0.14648704  0.14917155    -0.56900
H399        H  0.26364987  0.17432546  0.15721419     0.18700
O400        O  0.25409078  0.07052509  0.17339385    -0.63600
H401        H  0.18756013  0.04294347  0.16570953     0.17100
C402        C  0.13541145  0.03848514  0.14665295     0.29400
C403        C  0.09918575  0.02064814  0.14282044    -0.24500
C404        C  0.07603084  0.03411767  0.14598863    -0.23800
C405        C  0.08916450  0.06470120  0.15393755     0.40800
C406        C  0.12553112  0.08244727  0.15795375    -0.26300
O407        O  0.15751856  0.02569998  0.14250782    -0.58100
H408        H  0.08961268  0.99723727  0.13667260     0.16400
O409        O  0.06725253  0.07844410  0.15732426    -0.59600
H410        H  0.13539719  0.10632324  0.16386967     0.14900
H411        H  0.26757953  0.06531958  0.16680859     0.46700
H412        H  0.16841189  0.03895581  0.13448944     0.42100
H413        H  0.07029886  0.09576936  0.15049192     0.45600
H414        H  0.19767772  0.14193666  0.13995023     0.37100
C415        C  0.43982662  0.14129387  0.64754186    -0.27200
C416        C  0.42815527  0.10443954  0.64918306     0.02400
C417        C  0.40423602  0.07939906  0.64022888     0.30500
C418        C  0.39066741  0.09104185  0.63031872    -0.19000
C419        C  0.40107884  0.12774160  0.62896450    -0.28400
C420        C  0.42662601  0.15307572  0.63753781     0.44500
C421        C  0.43893198  0.09202586  0.66070055     0.05700
O422        O  0.39329166  0.04330389  0.64125574    -0.56900
H423        H  0.37142533  0.07111672  0.62379498     0.18700
O424        O  0.43772850  0.18923207  0.63661220    -0.63600
H425        H  0.45799683  0.16092060  0.65437211     0.17100
C426        C  0.47540000  0.10696315  0.66426044     0.29400
C427        C  0.48453295  0.09357168  0.67495004    -0.24500
C428        C  0.45770584  0.06534167  0.68230377    -0.23800
C429        C  0.42108953  0.05172445  0.67903673     0.40800
C430        C  0.41206715  0.06501586  0.66833418    -0.26300
O431        O  0.50239317  0.13303873  0.65691330    -0.58100
H432        H  0.01298053  0.10424260  0.67706962     0.16400
O433        O  0.39381724  0.02475187  0.68600945    -0.59600
H434        H  0.38380445  0.05397059  0.66594112     0.14900
H435        H  0.42106503  0.19298763  0.64218744     0.46700
H436        H  0.01184211  0.15551066  0.66170757     0.42100
H437        H  0.38639318  0.53791735  0.69225253     0.45600
H438        H  0.41058553  0.03975982  0.63596663     0.37100
C439        C  0.39915526  0.37453732  0.66181277    -0.27200
C440        C  0.41250387  0.35110549  0.65912815     0.02400
C441        C  0.43795099  0.35006964  0.66738725     0.30500
C442        C  0.45057722  0.37315873  0.67789582    -0.19000
C443        C  0.43772012  0.39714750  0.68049907    -0.28400
C444        C  0.41123988  0.39719355  0.67243436     0.44500
C445        C  0.40017119  0.32821908  0.64760443     0.05700
O446        O  0.45088303  0.32677974  0.66520869    -0.56900
H447        H  0.97058800  0.37223003  0.68410151     0.18700
O448        O  0.39847315  0.42071781  0.67436937    -0.63600
H449        H  0.37990327  0.37595125  0.65546777     0.17100
C450        C  0.36315659  0.30501088  0.64527510     0.29400
C451        C  0.35233057  0.28149854  0.63487607    -0.24500
C452        C  0.37799930  0.28060858  0.62668286    -0.23800
C453        C  0.41496823  0.30556992  0.62857530     0.40800
C454        C  0.42574798  0.32905138  0.63898035    -0.26300
O455        O  0.33752912  0.30312722  0.65365041    -0.58100
H456        H  0.32378507  0.26252043  0.63367474     0.16400
O457        O  0.44091231  0.30647276  0.62059528    -0.59600
H458        H  0.45429186  0.34753931  0.64046738     0.14900
H459        H  0.37572883  0.40675773  0.67925962     0.46700
H460        H  0.32589859  0.31536030  0.64930919     0.42100
H461        H  0.44338872  0.32338633  0.61368425     0.45600
H462        H  0.43377812  0.30410375  0.66965465     0.37100
C463        C  0.18095621  0.10454902  0.64377007    -0.27200
C464        C  0.18627626  0.08397397  0.65304635     0.02400
C465        C  0.21351548  0.07489911  0.65125380     0.30500
C466        C  0.23533235  0.08684313  0.64041242    -0.19000
C467        C  0.23084373  0.10841028  0.63129383    -0.28400
C468        C  0.20299905  0.11681373  0.63296394     0.44500
C469        C  0.16260100  0.07135018  0.66437647     0.05700
O470        O  0.21955460  0.05503819  0.66018028    -0.56900
H471        H  0.25673628  0.08028182  0.63939376     0.18700
O472        O  0.19712958  0.13704845  0.62414960    -0.63600
H473        H  0.15948809  0.11097768  0.64488445     0.17100
C474        C  0.15848739  0.09584024  0.67221729     0.29400
C475        C  0.13349813  0.08295084  0.68221167    -0.24500
C476        C  0.11196454  0.04561882  0.68447920    -0.23800
C477        C  0.11746496  0.02125292  0.67694442     0.40800
C478        C  0.14267820  0.03425754  0.66702785    -0.26300
O479        O  0.17904673  0.13242192  0.67023707    -0.58100
H480        H  0.13024631  0.10229543  0.68794910     0.16400
O481        O  0.09707464  0.48444086  0.67873242    -0.59600
H482        H  0.14560641  0.01512381  0.66104855     0.14900
H483        H  0.18083497  0.11940900  0.61774431     0.46700
H484        H  0.16245382  0.13974269  0.66636340     0.42100
H485        H  0.07630473  0.47601584  0.67283199     0.45600
H486        H  0.23624241  0.07297173  0.66643358     0.37100
C487        C  0.25427275  0.02622170  0.54969054    -0.27200
C488        C  0.24313827  0.49178492  0.55464981     0.02400
C489        C  0.24789935  0.98774592  0.56762362     0.30500
C490        C  0.26398021  0.01818530  0.57554181    -0.19000
C491        C  0.27526706  0.05288881  0.57062991    -0.28400
C492        C  0.26977245  0.05654488  0.55755140     0.44500
C493        C  0.22757794  0.46066639  0.54595653     0.05700
O494        O  0.23784786  0.45417625  0.57256149    -0.56900
H495        H  0.26792503  0.01459302  0.58549508     0.18700
O496        O  0.27963985  0.08959491  0.55224966    -0.63600
H497        H  0.25063504  0.02949532  0.53967255     0.17100
C498        C  0.19076694  0.43446568  0.54659711     0.29400
C499        C  0.17641799  0.40582579  0.53791158    -0.24500
C500        C  0.19844566  0.40321148  0.52852531    -0.23800
C501        C  0.23539910  0.42929849  0.52799216     0.40800
C502        C  0.24963181  0.45807007  0.53659360    -0.26300
O503        O  0.16844946  0.43764780  0.55529580    -0.58100
H504        H  0.14793355  0.38584854  0.53838463     0.16400
O505        O  0.25778548  0.42677647  0.51916238    -0.59600
H506        H  0.27802620  0.47827531  0.53603948     0.14900
H507        H  0.25824535  0.09278087  0.55328852     0.46700
H508        H  0.16294131  0.41856315  0.56171945     0.42100
H509        H  0.27084833  0.41651219  0.52378606     0.45600
H510        H  0.21518887  0.44686200  0.57736048     0.37100
C511        C  0.05987641  0.25352676  0.54350804    -0.27200
C512        C  0.03273307  0.26275187  0.54230012     0.02400
C513        C  0.03610773  0.28821972  0.53311287     0.30500
C514        C  0.06702279  0.30492525  0.52548729    -0.19000
C515        C  0.09421231  0.29570879  0.52668056    -0.28400
C516        C  0.09037698  0.26961085  0.53569224     0.44500
C517        C  0.00208947  0.24735086  0.55121489     0.05700
O518        O  0.01028017  0.29834930  0.53204302    -0.56900
H519        H  0.07008118  0.32559380  0.51880551     0.18700
O520        O  0.11638039  0.25982783  0.53699778    -0.63600
H521        H  0.05740994  0.23390307  0.55056841     0.17100
C522        C  0.46666009  0.22519169  0.54683605     0.29400
C523        C  0.43795499  0.21264760  0.55543397    -0.24500
C524        C  0.44411033  0.22139414  0.56845743    -0.23800
C525        C  0.48001328  0.24272625  0.57277103     0.40800
C526        C  0.00855061  0.25533618  0.56419086    -0.26300
O527        O  0.45974873  0.21606462  0.53422675    -0.58100
H528        H  0.41077707  0.19601756  0.55183891     0.16400
O529        O  0.48754998  0.25159045  0.58537014    -0.59600
H530        H  0.03595751  0.27200192  0.56759367     0.14900
H531        H  0.10982055  0.24001099  0.53078280     0.46700
H532        H  0.46260010  0.19447419  0.53316385     0.42100
H533        H  0.49000577  0.27590676  0.58621914     0.45600
H534        H  0.99692729  0.28669545  0.52412655     0.37100
C535        C  0.23535769  0.29874567  0.54492242    -0.27200
C536        C  0.22521531  0.26247519  0.54267825     0.02400
C537        C  0.20200582  0.24396845  0.53246072     0.30500
C538        C  0.18919429  0.26188922  0.52471877    -0.19000
C539        C  0.19966510  0.29829017  0.52693155    -0.28400
C540        C  0.22281628  0.31667237  0.53713453     0.44500
C541        C  0.23869758  0.24453235  0.55134163     0.05700
O542        O  0.19016130  0.20795919  0.53044458    -0.56900
H543        H  0.17041495  0.24710679  0.51714324     0.18700
O544        O  0.23325109  0.35215124  0.53958549    -0.63600
H545        H  0.25326513  0.31331146  0.55273769     0.17100
C546        C  0.25886399  0.22892602  0.54676139     0.29400
C547        C  0.27341449  0.21447486  0.55530696    -0.24500
C548        C  0.26889111  0.21594392  0.56853907    -0.23800
C549        C  0.24863385  0.23168286  0.57307040     0.40800
C550        C  0.23356189  0.24550621  0.56448784    -0.26300
O551        O  0.26550676  0.22867083  0.53399623    -0.58100
H552        H  0.28895401  0.20274608  0.55151686     0.16400
O553        O  0.24357654  0.23408261  0.58584418    -0.59600
H554        H  0.21824351  0.25765822  0.56813305     0.14900
H555        H  0.25895786  0.36601772  0.53695778     0.46700
H556        H  0.28741435  0.25227833  0.53227379     0.42100
H557        H  0.26371554  0.25801363  0.58846527     0.45600
H558        H  0.20098741  0.20679140  0.52221622     0.37100
C559        C  0.20263343  0.46940304  0.49908772    -0.27200
C560        C  0.23502401  0.48352427  0.49213419     0.02400
C561        C  0.24801239  0.45991645  0.48867818     0.30500
C562        C  0.22948187  0.42344752  0.49257896    -0.19000
C563        C  0.19803026  0.40997267  0.50002610    -0.28400
C564        C  0.18408610  0.43308411  0.50289692     0.44500
C565        C  0.25441543  0.02258394  0.48826883     0.05700
O566        O  0.27914315  0.47234439  0.48168535    -0.56900
H567        H  0.24073501  0.40619277  0.49035938     0.18700
O568        O  0.15308039  0.42079801  0.50996512    -0.63600
H569        H  0.19203315  0.48685690  0.50184652     0.17100
C570        C  0.23624414  0.03737386  0.48152338     0.29400
C571        C  0.25497638  0.07343976  0.47741622    -0.24500
C572        C  0.29201550  0.09569116  0.47989494    -0.23800
C573        C  0.30986531  0.08171759  0.48723538     0.40800
C574        C  0.29113185  0.04540096  0.49133565    -0.26300
O575        O  0.20068566  0.51601245  0.47815524    -0.58100
H576        H  0.24084337  0.08365862  0.47171043     0.16400
O577        O  0.34583262  0.10287291  0.49006947    -0.59600
H578        H  0.30544217  0.03485882  0.49676345     0.14900
H579        H  0.13302357  0.40801569  0.50383048     0.46700
H580        H  0.18692316  0.52364013  0.48375896     0.42100
H581        H  0.35898975  0.10040147  0.48269524     0.45600
H582        H  0.27166918  0.97169391  0.47265628     0.37100
C583        C  0.45641792  0.24927763  0.49111024    -0.27200
C584        C  0.48080725  0.23849195  0.48657213     0.02400
C585        C  0.46733653  0.20774706  0.47866966     0.30500
C586        C  0.43076999  0.18903832  0.47523109    -0.19000
C587        C  0.40687232  0.20105158  0.47908684    -0.28400
C588        C  0.41976165  0.23087135  0.48739728     0.44500
C589        C  0.01993000  0.25863687  0.49024552     0.05700
O590        O  0.49007128  0.19664788  0.47375066    -0.56900
H591        H  0.42146108  0.16621287  0.46881508     0.18700
O592        O  0.39726353  0.24329153  0.49144007    -0.63600
H593        H  0.46594740  0.27239987  0.49738715     0.17100
C594        C  0.04163374  0.29642510  0.48852045     0.29400
C595        C  0.07799119  0.31459734  0.49252403    -0.24500
C596        C  0.09328353  0.29561858  0.49830063    -0.23800
C597        C  0.07209237  0.25773537  0.49946891     0.40800
C598        C  0.03593026  0.23968052  0.49552771    -0.26300
O599        O  0.02738466  0.31600170  0.48322089    -0.58100
H600        H  0.09361827  0.34378799  0.49178787     0.16400
O601        O  0.08578883  0.23837379  0.50532739    -0.59600
H602        H  0.01991248  0.21075871  0.49701732     0.14900
H603        H  0.40071907  0.26231380  0.48525570     0.46700
H604        H  0.02883056  0.31332577  0.47389794     0.42100
H605        H  0.09899695  0.23341604  0.49856930     0.45600
H606        H  0.99944257  0.21034986  0.46572377     0.37100
C607        C  0.25061790  0.21174400  0.49060617    -0.27200
C608        C  0.26518754  0.24863834  0.48757526     0.02400
C609        C  0.29900674  0.26660212  0.48136224     0.30500
C610        C  0.31672340  0.24762349  0.47782555    -0.19000
C611        C  0.30120514  0.21039488  0.48018090    -0.28400
C612        C  0.26846066  0.19270944  0.48701715     0.44500
C613        C  0.24534365  0.26838313  0.49092283     0.05700
O614        O  0.31420355  0.30238890  0.47810307    -0.56900
H615        H  0.34168479  0.26156241  0.47244671     0.18700
O616        O  0.25205630  0.15621350  0.48921543    -0.63600
H617        H  0.22496391  0.19747134  0.49555186     0.17100
C618        C  0.20888082  0.25521050  0.48741327     0.29400
C619        C  0.19052703  0.27347704  0.49131165    -0.24500
C620        C  0.20807543  0.30504274  0.49867690    -0.23800
C621        C  0.24509515  0.31943808  0.50144473     0.40800
C622        C  0.26320936  0.30104187  0.49771229    -0.26300
O623        O  0.19065987  0.22406477  0.48043318    -0.58100
H624        H  0.16204856  0.26187014  0.48919342     0.16400
O625        O  0.26318763  0.35020391  0.50864537    -0.59600
H626        H  0.29112114  0.31177711  0.50052825     0.14900
H627        H  0.26418971  0.15363533  0.49685596     0.46700
H628        H  0.19713197  0.23167298  0.47144858     0.42100
H629        H  0.26774740  0.37038668  0.50284884     0.45600
H630        H  0.30406053  0.30245935  0.46962914     0.37100
C631        C  0.38349393  0.46610987  0.87264961    -0.27200
C632        C  0.36699212  0.42876117  0.87466500     0.02400
C633        C  0.37941592  0.40829951  0.86806386     0.30500
C634        C  0.40886709  0.42557515  0.85979059    -0.19000
C635        C  0.42582947  0.46305723  0.85800979    -0.28400
C636        C  0.41263152  0.48332876  0.86425861     0.44500
C637        C  0.33668795  0.41167027  0.88366735     0.05700
O638        O  0.36347815  0.37166672  0.86986966    -0.56900
H639        H  0.41910291  0.40992645  0.85500155     0.18700
O640        O  0.42844312  0.02000998  0.86232167    -0.63600
H641        H  0.37369823  0.48191250  0.87759582     0.17100
C642        C  0.34202638  0.42008553  0.89668339     0.29400
C643        C  0.31245618  0.40592866  0.90496261    -0.24500
C644        C  0.27720096  0.38375928  0.90037568    -0.23800
C645        C  0.27220531  0.37458091  0.88729955     0.40800
C646        C  0.30189570  0.38859495  0.87908302    -0.26300
O647        O  0.37613658  0.44186795  0.90138618    -0.58100
H648        H  0.31715882  0.41300949  0.91494749     0.16400
O649        O  0.23846977  0.35254807  0.88235317    -0.59600
H650        H  0.29767109  0.38212573  0.86903615     0.14900
H651        H  0.40917217  0.02432178  0.85896641     0.46700
H652        H  0.37873541  0.46627205  0.90204366     0.42100
H653        H  0.23497564  0.32775316  0.88280922     0.45600
H654        H  0.37654024  0.36864325  0.87713700     0.37100
C655        C  0.06376442  0.40958549  0.89813518    -0.27200
C656        C  0.06860491  0.40943477  0.88494581     0.02400
C657        C  0.09026178  0.39594857  0.88002673     0.30500
C658        C  0.10703554  0.38312039  0.88829772    -0.19000
C659        C  0.10257115  0.38341747  0.90157176    -0.28400
C660        C  0.08049695  0.39676972  0.90644082     0.44500
C661        C  0.05343955  0.42618153  0.87648076     0.05700
O662        O  0.09693275  0.39726828  0.86720154    -0.56900
H663        H  0.12407592  0.37343491  0.88425876     0.18700
O664        O  0.07472309  0.39716429  0.91926385    -0.63600
H665        H  0.04720773  0.42007349  0.90201366     0.17100
C666        C  0.02932387  0.40655924  0.86660236     0.29400
C667        C  0.01721899  0.42398072  0.85832212    -0.24500
C668        C  0.02874227  0.46085461  0.85983304    -0.23800
C669        C  0.05190468  0.48010488  0.86996745     0.40800
C670        C  0.06422532  0.46278194  0.87814924    -0.26300
O671        O  0.01722528  0.37036774  0.86504758    -0.58100
H672        H  0.99832056  0.40855278  0.85085846     0.16400
O673        O  0.06401361  0.51629731  0.87157918    -0.59600
H674        H  0.08282403  0.47816706  0.88570128     0.14900
H675        H  0.09289490  0.42176308  0.92213773     0.46700
H676        H  0.99593555  0.35796158  0.87074755     0.42100
H677        H  0.05134983  0.51801045  0.87925118     0.45600
H678        H  0.08270535  0.37192696  0.86419629     0.37100
C679        C  0.10069612  0.19039633  0.88162491    -0.27200
C680        C  0.08706405  0.15595231  0.88691791     0.02400
C681        C  0.08861574  0.15234970  0.90017543     0.30500
C682        C  0.10260942  0.18312152  0.90798455    -0.19000
C683        C  0.11521840  0.21773613  0.90273194    -0.28400
C684        C  0.11479744  0.22108166  0.88933544     0.44500
C685        C  0.06984999  0.12418813  0.87840676     0.05700
O686        O  0.07763506  0.11904010  0.90548403    -0.56900
H687        H  0.10343071  0.17977333  0.91816831     0.18700
O688        O  0.12723285  0.25408689  0.88360358    -0.63600
H689        H  0.09969971  0.19347752  0.87142382     0.17100
C690        C  0.03312682  0.09826074  0.87983956     0.29400
C691        C  0.01645564  0.07016087  0.87103704    -0.24500
C692        C  0.03567380  0.06754080  0.86064568    -0.23800
C693        C  0.07277458  0.09290627  0.85942172     0.40800
C694        C  0.08945481  0.12127462  0.86816481    -0.26300
O695        O  0.01285716  0.10139992  0.88939533    -0.58100
H696        H  0.48832479  0.05060515  0.87228713     0.16400
O697        O  0.09319035  0.08971489  0.84995426    -0.59600
H698        H  0.11782936  0.14099179  0.86699803     0.14900
H699        H  0.15263583  0.26206867  0.88122013     0.46700
H700        H  0.00606662  0.08039791  0.89507485     0.42100
H701        H  0.10190522  0.07390066  0.85352677     0.45600
H702        H  0.05635271  0.11370444  0.91083406     0.37100
C703        C  0.27510866  0.41059821  0.76905310    -0.27200
C704        C  0.29381616  0.39169570  0.76720999     0.02400
C705        C  0.28387553  0.36002505  0.77427565     0.30500
C706        C  0.25462987  0.34706126  0.78274383    -0.19000
C707        C  0.23556351  0.36575417  0.78438544    -0.28400
C708        C  0.24653576  0.39821923  0.77774130     0.44500
C709        C  0.32477021  0.40664709  0.75833705     0.05700
O710        O  0.30238351  0.34152087  0.77289004    -0.56900
H711        H  0.24653537  0.32221948  0.78793389     0.18700
O712        O  0.22949085  0.41795638  0.77973723    -0.63600
H713        H  0.28322957  0.43554728  0.76393021     0.17100
C714        C  0.32040967  0.41230279  0.74542909     0.29400
C715        C  0.35062914  0.42917444  0.73741682    -0.24500
C716        C  0.38559718  0.44128893  0.74216874    -0.23800
C717        C  0.38967124  0.43538185  0.75517750     0.40800
C718        C  0.35938182  0.41794879  0.76306563    -0.26300
O719        O  0.28659834  0.40073046  0.74053104    -0.58100
H720        H  0.34662730  0.43308422  0.72749943     0.16400
O721        O  0.42303913  0.44610519  0.76032207    -0.59600
H722        H  0.36304375  0.41409280  0.77302843     0.14900
H723        H  0.24871662  0.44303902  0.78164472     0.46700
H724        H  0.28444677  0.42279095  0.73977945     0.42100
H725        H  0.43058941  0.46996636  0.76427474     0.45600
H726        H  0.28945636  0.32352319  0.76609456     0.37100
C727        C  0.07405921  0.36668730  0.77777901    -0.27200
C728        C  0.09282468  0.38771013  0.76720970     0.02400
C729        C  0.12813083  0.39498256  0.76470929     0.30500
C730        C  0.14460028  0.38185822  0.77289521    -0.19000
C731        C  0.12670338  0.36209043  0.78379440    -0.28400
C732        C  0.09047917  0.35313764  0.78590023     0.44500
C733        C  0.07566029  0.40229625  0.75881042     0.05700
O734        O  0.14711538  0.41590169  0.75449986    -0.56900
H735        H  0.17134782  0.38703217  0.77058281     0.18700
O736        O  0.07049755  0.33023438  0.79554773    -0.63600
H737        H  0.04645869  0.36027282  0.77957860     0.17100
C738        C  0.06650484  0.38996479  0.74622804     0.29400
C739        C  0.05265748  0.40611059  0.73811619    -0.24500
C740        C  0.04764158  0.43455837  0.74243745    -0.23800
C741        C  0.05655427  0.44647416  0.75518179     0.40800
C742        C  0.07036032  0.43024845  0.76323233    -0.26300
O743        O  0.07155215  0.36254197  0.74173380    -0.58100
H744        H  0.04587503  0.39635277  0.72843539     0.16400
O745        O  0.05395163  0.97527091  0.75968408    -0.59600
H746        H  0.07784982  0.44015149  0.77287909     0.14900
H747        H  0.06338771  0.30561226  0.79242612     0.46700
H748        H  0.05022987  0.33993712  0.74473781     0.42100
H749        H  0.03069119  0.96439843  0.76438164     0.45600
H750        H  0.14617751  0.39862198  0.74797661     0.37100
C751        C  0.13007942  0.20779108  0.77670300    -0.27200
C752        C  0.10109310  0.20120510  0.76870931     0.02400
C753        C  0.08603181  0.22406728  0.76935778     0.30500
C754        C  0.10082526  0.25370470  0.77763035    -0.19000
C755        C  0.13014733  0.26051233  0.78541877    -0.28400
C756        C  0.14456974  0.23720474  0.78506696     0.44500
C757        C  0.08685613  0.17027260  0.75980677     0.05700
O758        O  0.05612092  0.21680648  0.76229338    -0.56900
H759        H  0.08943280  0.27147747  0.77796966     0.18700
O760        O  0.17408082  0.24425157  0.79232016    -0.63600
H761        H  0.14196660  0.19046494  0.77627518     0.17100
C762        C  0.08459554  0.17505397  0.74665310     0.29400
C763        C  0.07066423  0.14524086  0.73848771    -0.24500
C764        C  0.05925936  0.11036998  0.74320769    -0.23800
C765        C  0.06278398  0.10587136  0.75635289     0.40800
C766        C  0.07647146  0.13569039  0.76450003    -0.26300
O767        O  0.09631367  0.20880473  0.74165271    -0.58100
H768        H  0.06859132  0.14947631  0.72843665     0.16400
O769        O  0.05395371  0.07269847  0.76131297    -0.59600
H770        H  0.07873948  0.13173429  0.77456676     0.14900
H771        H  0.16539156  0.22398975  0.79847263     0.46700
H772        H  0.12229917  0.21844926  0.73974095     0.42100
H773        H  0.02954593  0.06328686  0.76508091     0.45600
H774        H  0.06429328  0.23713533  0.75618532     0.37100
C775        C  0.08615902  0.37623922  0.82490620    -0.27200
C776        C  0.09700009  0.41125419  0.82031470     0.02400
C777        C  0.12760329  0.42812523  0.81233669     0.30500
C778        C  0.14539897  0.40948118  0.80851061    -0.19000
C779        C  0.13307378  0.37364347  0.81237010    -0.28400
C780        C  0.10421443  0.35760089  0.82109495     0.44500
C781        C  0.07646671  0.43010772  0.82380836     0.05700
O782        O  0.13939376  0.46230874  0.80773579    -0.56900
H783        H  0.16778296  0.42237634  0.80188242     0.18700
O784        O  0.09146135  0.32268187  0.82505979    -0.63600
H785        H  0.06321813  0.36306580  0.83128289     0.17100
C786        C  0.03906986  0.41449231  0.82138341     0.29400
C787        C  0.02028476  0.43245169  0.82514102    -0.24500
C788        C  0.03826778  0.46589008  0.83143141    -0.23800
C789        C  0.07583715  0.48215751  0.83333772     0.40800
C790        C  0.09460036  0.46440942  0.82952082    -0.26300
O791        O  0.02079250  0.38193096  0.81519920    -0.58100
H792        H  0.99133699  0.41940698  0.82371727     0.16400
O793        O  0.09433137  0.01528314  0.83914952    -0.59600
H794        H  0.12333089  0.47709135  0.83137663     0.14900
H795        H  0.10502129  0.32470880  0.83295587     0.46700
H796        H  0.00751393  0.36387316  0.82195368     0.42100
H797        H  0.10025621  0.01039266  0.84777301     0.45600
H798        H  0.12607716  0.45880119  0.79965759     0.37100
C799        C  0.29761639  0.42651536  0.81370885    -0.27200
C800        C  0.31310476  0.40777531  0.81959486     0.02400
C801        C  0.29005768  0.37102517  0.82286087     0.30500
C802        C  0.25353697  0.35313629  0.81905102    -0.19000
C803        C  0.23899283  0.37177559  0.81261949    -0.28400
C804        C  0.26085000  0.40918857  0.81072408     0.44500
C805        C  0.35272457  0.42775207  0.82270216     0.05700
O806        O  0.30253400  0.35288073  0.83019360    -0.56900
H807        H  0.23699841  0.32448300  0.82078416     0.18700
O808        O  0.24671667  0.42890878  0.80549215    -0.63600
H809        H  0.31411474  0.45481259  0.81125749     0.17100
C810        C  0.37549347  0.41264965  0.82085380     0.29400
C811        C  0.41185824  0.43169275  0.82475281    -0.24500
C812        C  0.42665854  0.46657441  0.82988120    -0.23800
C813        C  0.40507074  0.48295568  0.83048662     0.40800
C814        C  0.36845447  0.46342044  0.82727751    -0.26300
O815        O  0.36264020  0.37928042  0.81537986    -0.58100
H816        H  0.42811130  0.41864226  0.82424274     0.16400
O817        O  0.41912345  0.51755731  0.83493850    -0.59600
H818        H  0.35216055  0.47616031  0.82870538     0.14900
H819        H  0.23471345  0.43405627  0.81263802     0.46700
H820        H  0.36150233  0.38322945  0.80613535     0.42100
H821        H  0.42371563  0.03265499  0.82704480     0.45600
H822        H  0.29917251  0.33192999  0.82502851     0.37100
C823        C  0.12319456  0.20857553  0.82443093    -0.27200
C824        C  0.08669761  0.18654805  0.82106011     0.02400
C825        C  0.06886586  0.20241751  0.81476525     0.30500
C826        C  0.08800279  0.23892011  0.81123077    -0.19000
C827        C  0.12515044  0.26019860  0.81372319    -0.28400
C828        C  0.14231681  0.24522094  0.82088936     0.44500
C829        C  0.06726065  0.14727260  0.82426953     0.05700
O830        O  0.03314069  0.18204139  0.81147698    -0.56900
H831        H  0.07434641  0.25006796  0.80573193     0.18700
O832        O  0.17840600  0.26524693  0.82358341    -0.63600
H833        H  0.13711124  0.19713366  0.82959705     0.17100
C834        C  0.07990958  0.12389887  0.82018614     0.29400
C835        C  0.06193424  0.08735501  0.82399562    -0.24500
C836        C  0.03172848  0.07392728  0.83206827    -0.23800
C837        C  0.01778032  0.09674262  0.83541052     0.40800
C838        C  0.03572190  0.13306450  0.83163732    -0.26300
O839        O  0.10969991  0.13653784  0.81244390    -0.58100
H840        H  0.07287475  0.07014463  0.82128875     0.16400
O841        O  0.98780939  0.08420215  0.84307712    -0.59600
H842        H  0.02547913  0.15049634  0.83481882     0.14900
H843        H  0.17955707  0.27554669  0.83214957     0.46700
H844        H  0.12979376  0.14014552  0.81810816     0.42100
H845        H  0.46984451  0.08738512  0.83802235     0.45600
H846        H  0.03325990  0.17415060  0.80260561     0.37100
C847        C  0.41983655  0.29389978  0.20113703    -0.27200
C848        C  0.39781202  0.29715791  0.21039736     0.02400
C849        C  0.36101621  0.27049795  0.21116597     0.30500
C850        C  0.34667766  0.24171457  0.20260577    -0.19000
C851        C  0.36867835  0.23863681  0.19336892    -0.28400
C852        C  0.40563574  0.26447659  0.19277361     0.44500
C853        C  0.41336518  0.32816797  0.21928764     0.05700
O854        O  0.33900549  0.27191026  0.22041899    -0.56900
H855        H  0.31833397  0.22139352  0.20327801     0.18700
O856        O  0.42828802  0.25969107  0.18468591    -0.63600
H857        H  0.44818585  0.31405283  0.20042679     0.17100
C858        C  0.44531963  0.33768543  0.22605692     0.29400
C859        C  0.45910701  0.36685445  0.23450489    -0.24500
C860        C  0.44149293  0.38699657  0.23640174    -0.23800
C861        C  0.40922120  0.37709133  0.22969087     0.40800
C862        C  0.39580108  0.34828435  0.22110844    -0.26300
O863        O  0.46242551  0.31772405  0.22487969    -0.58100
H864        H  0.48368471  0.37356329  0.23962193     0.16400
O865        O  0.39102839  0.39589748  0.23113065    -0.59600
H866        H  0.37153067  0.34170885  0.21580493     0.14900
H867        H  0.44105962  0.28221704  0.17960493     0.46700
H868        H  0.48508249  0.33337566  0.22014246     0.42100
H869        H  0.37139993  0.38162546  0.23730293     0.45600
H870        H  0.34183856  0.25918154  0.22783908     0.37100
C871        C  0.37522640  0.08336309  0.20119244    -0.27200
C872        C  0.40138784  0.10522271  0.21014864     0.02400
C873        C  0.41294611  0.14245713  0.21066979     0.30500
C874        C  0.39823557  0.15725226  0.20234453    -0.19000
C875        C  0.37226967  0.13540265  0.19336814    -0.28400
C876        C  0.36048159  0.09817925  0.19288840     0.44500
C877        C  0.41642329  0.08895714  0.21891853     0.05700
O878        O  0.43830064  0.16450209  0.21936844    -0.56900
H879        H  0.40709920  0.18587463  0.20287441     0.18700
O880        O  0.33419412  0.07600332  0.18448807    -0.63600
H881        H  0.36616797  0.05471072  0.20066761     0.17100
C882        C  0.39372457  0.05983089  0.22687241     0.29400
C883        C  0.40856096  0.04464925  0.23499888    -0.24500
C884        C  0.44613321  0.05842661  0.23547361    -0.23800
C885        C  0.46876680  0.08767006  0.22745379     0.40800
C886        C  0.45383814  0.10264855  0.21930753    -0.26300
O887        O  0.35703689  0.04627587  0.22687577    -0.58100
H888        H  0.39058507  0.02231204  0.24105949     0.16400
O889        O  0.50551750  0.10169845  0.22736419    -0.59600
H890        H  0.47156015  0.12482811  0.21313813     0.14900
H891        H  0.31099546  0.06801094  0.18900343     0.46700
H892        H  0.35287488  0.06189145  0.23284782     0.42100
H893        H  0.50996298  0.08707822  0.22102340     0.45600
H894        H  0.42456780  0.16176695  0.22731009     0.37100
C895        C  0.15648890  0.04514284  0.22186542    -0.27200
C896        C  0.17718550  0.08276809  0.22025243     0.02400
C897        C  0.16774102  0.10522287  0.22719106     0.30500
C898        C  0.13716701  0.09004098  0.23500863    -0.19000
C899        C  0.11591943  0.05237395  0.23644570    -0.28400
C900        C  0.12651878  0.02992373  0.23003495     0.44500
C901        C  0.20769802  0.09843526  0.21102291     0.05700
O902        O  0.18818736  0.14217018  0.22639246    -0.56900
H903        H  0.13023036  0.10800125  0.24002629     0.18700
O904        O  0.10710167  0.99302461  0.23126587    -0.63600
H905        H  0.16304161  0.02733460  0.21656291     0.17100
C906        C  0.23454447  0.08826091  0.21098448     0.29400
C907        C  0.26349885  0.10450957  0.20241654    -0.24500
C908        C  0.26596306  0.13054346  0.19370798    -0.23800
C909        C  0.23935794  0.14085452  0.19372549     0.40800
C910        C  0.21029880  0.12450422  0.20224546    -0.26300
O911        O  0.23379596  0.06401682  0.21973367    -0.58100
H912        H  0.28434920  0.09701928  0.20265824     0.16400
O913        O  0.24305149  0.16866798  0.18610989    -0.59600
H914        H  0.18988822  0.13259670  0.20207745     0.14900
H915        H  0.11951394  0.98720316  0.23806054     0.46700
H916        H  0.22772623  0.04181963  0.21482294     0.42100
H917        H  0.22033372  0.15891966  0.18115654     0.45600
H918        H  0.20844812  0.14899246  0.23240677     0.37100
C919        C  0.07600117  0.39160685  0.33297882    -0.27200
C920        C  0.10290401  0.42141168  0.32637641     0.02400
C921        C  0.13840907  0.43931906  0.33105074     0.30500
C922        C  0.14693332  0.42655718  0.34197541    -0.19000
C923        C  0.12040133  0.39573480  0.34839489    -0.28400
C924        C  0.08443466  0.37864472  0.34390642     0.44500
C925        C  0.09308155  0.43487926  0.31505138     0.05700
O926        O  0.16507503  0.46901300  0.32489275    -0.56900
H927        H  0.17476235  0.44024545  0.34515331     0.18700
O928        O  0.05727088  0.34947596  0.35012780    -0.63600
H929        H  0.04830179  0.37838741  0.32965599     0.17100
C930        C  0.07791103  0.41293958  0.30425118     0.29400
C931        C  0.06541038  0.42523941  0.29417197    -0.24500
C932        C  0.06714238  0.45894727  0.29493935    -0.23800
C933        C  0.08402029  0.48150491  0.30552540     0.40800
C934        C  0.09703044  0.46945191  0.31541950    -0.26300
O935        O  0.07517020  0.37950913  0.30351772    -0.58100
H936        H  0.05267631  0.40766587  0.28609333     0.16400
O937        O  0.08775134  0.51536989  0.30631796    -0.59600
H938        H  0.10892682  0.48661803  0.32365912     0.14900
H939        H  0.05336837  0.32802472  0.34515806     0.46700
H940        H  0.04966494  0.36201801  0.30567224     0.42100
H941        H  0.56873445  0.51295795  0.31238375     0.45600
H942        H  0.17483243  0.45917187  0.31841400     0.37100
C943        C  0.06915998  0.20769575  0.32813162    -0.27200
C944        C  0.08796480  0.19041701  0.32391352     0.02400
C945        C  0.11801460  0.19473809  0.33088157     0.30500
C946        C  0.12880425  0.21607732  0.34188399    -0.19000
C947        C  0.10975575  0.23315365  0.34624797    -0.28400
C948        C  0.07944128  0.22850278  0.33922665     0.44500
C949        C  0.07418830  0.16564223  0.31285539     0.05700
O950        O  0.13678253  0.17787056  0.32710825    -0.56900
H951        H  0.15230829  0.21933740  0.34697266     0.18700
O952        O  0.06017555  0.24498063  0.34284689    -0.63600
H953        H  0.04614268  0.20485777  0.32281534     0.17100
C954        C  0.03838452  0.13676080  0.31287792     0.29400
C955        C  0.02636020  0.11143136  0.30306720    -0.24500
C956        C  0.04941122  0.11431832  0.29303756    -0.23800
C957        C  0.08486213  0.14390766  0.29269874     0.40800
C958        C  0.09702156  0.16946436  0.30257406    -0.26300
O959        O  0.01577373  0.13150127  0.32295930    -0.58100
H960        H  0.99911525  0.08861260  0.30354161     0.16400
O961        O  0.10834430  0.14696973  0.28319991    -0.59600
H962        H  0.12459960  0.19169676  0.30240099     0.14900
H963        H  0.03968482  0.22661954  0.34795693     0.46700
H964        H  0.99831899  0.13868284  0.31981660     0.42100
H965        H  0.12138402  0.13485718  0.28653837     0.45600
H966        H  0.12452628  0.15394302  0.33136507     0.37100
C967        C  0.30764706  0.36818613  0.33308047    -0.27200
C968        C  0.32204811  0.40309806  0.32807701     0.02400
C969        C  0.31383037  0.42785814  0.33391907     0.30500
C970        C  0.29032736  0.41710221  0.34434323    -0.19000
C971        C  0.27463875  0.38162948  0.34913618    -0.28400
C972        C  0.28400247  0.35723496  0.34346053     0.44500
C973        C  0.34591188  0.41352763  0.31682070     0.05700
O974        O  0.32834314  0.46253560  0.32941963    -0.56900
H975        H  0.28374233  0.43643718  0.34847230     0.18700
O976        O  0.26979978  0.32241140  0.34778069    -0.63600
H977        H  0.31402439  0.34898288  0.32869851     0.17100
C978        C  0.37846743  0.41283153  0.31728766     0.29400
C979        C  0.40191566  0.42501289  0.30689357    -0.24500
C980        C  0.39342132  0.43786685  0.29584830    -0.23800
C981        C  0.35993675  0.43684405  0.29512948     0.40800
C982        C  0.33645365  0.42479886  0.30562090    -0.26300
O983        O  0.38867735  0.40256810  0.32817610    -0.58100
H984        H  0.42748907  0.42544754  0.30764807     0.16400
O985        O  0.35058521  0.44893566  0.28450007    -0.59600
H986        H  0.31111849  0.42491337  0.30512223     0.14900
H987        H  0.24883641  0.30765980  0.34217973     0.46700
H988        H  0.38407075  0.37773027  0.32647760     0.42100
H989        H  0.35919354  0.97480774  0.28611196     0.45600
H990        H  0.35229997  0.47619084  0.33357187     0.37100
C991        C  0.29625816  0.04691351  0.44202549    -0.27200
C992        C  0.26672741  0.04021898  0.43431628     0.02400
C993        C  0.25140884  0.06277258  0.43531942     0.30500
C994        C  0.26615234  0.09200931  0.44378696    -0.19000
C995        C  0.29577156  0.09873088  0.45140996    -0.28400
C996        C  0.31092444  0.07608860  0.45048460     0.44500
C997        C  0.25170901  0.00902641  0.42551804     0.05700
O998        O  0.22121545  0.05550825  0.42844694    -0.56900
H999        H  0.25437474  0.10939258  0.44446010     0.18700
O1000       O  0.34027397  0.08250871  0.45770487    -0.63600
H1001       H  0.30821350  0.02968134  0.44135585     0.17100
C1002       C  0.25150175  0.51362495  0.41224731     0.29400
C1003       C  0.23730571  0.48348783  0.40417146    -0.24500
C1004       C  0.22328458  0.44834986  0.40911965    -0.23800
C1005       C  0.22420668  0.44401300  0.42243969     0.40800
C1006       C  0.23818413  0.47412601  0.43045600    -0.26300
O1007       O  0.26549694  0.54753258  0.40708887    -0.58100
H1008       H  0.23721304  0.48769027  0.39401462     0.16400
O1009       O  0.21152574  0.41050410  0.42780010    -0.59600
H1010       H  0.23853487  0.97033071  0.44065537     0.14900
H1011       H  0.36165350  0.09871776  0.45248422     0.46700
H1012       H  0.29184102  0.55672549  0.40632671     0.42100
H1013       H  0.23273335  0.40682495  0.42817158     0.45600
H1014       H  0.22981076  0.07422878  0.42169945     0.37100
C1015       C  0.02448420  0.25782860  0.42936169    -0.27200
C1016       C  0.49051794  0.24836755  0.42451969     0.02400
C1017       C  0.98677229  0.25390348  0.41152417     0.30500
C1018       C  0.01724808  0.26893585  0.40358379    -0.19000
C1019       C  0.05160290  0.27847525  0.40841768    -0.28400
C1020       C  0.05493430  0.27278272  0.42149188     0.44500
C1021       C  0.45912133  0.23275646  0.43315778     0.05700
O1022       O  0.95379906  0.24614188  0.40670215    -0.56900
H1023       H  0.01396817  0.27346721  0.39365897     0.18700
O1024       O  0.08761030  0.28084197  0.42666732    -0.63600
H1025       H  0.52749114  0.25324391  0.43935158     0.17100
C1026       C  0.43176677  0.19649641  0.43193752     0.29400
C1027       C  0.40309268  0.18178303  0.44061361    -0.24500
C1028       C  0.40119053  0.20293251  0.45048768    -0.23800
C1029       C  0.42802985  0.23960647  0.45144361     0.40800
C1030       C  0.45714934  0.25406591  0.44295751    -0.26300
O1031       O  0.43368165  0.17495776  0.42260818    -0.58100
H1032       H  0.38233278  0.15371370  0.43965423     0.16400
O1033       O  0.42580760  0.26167666  0.46047255    -0.59600
H1034       H  0.47801662  0.28212553  0.44389481     0.14900
H1035       H  0.09693228  0.30495850  0.43065772     0.46700
H1036       H  0.41493574  0.17152840  0.41631833     0.42100
H1037       H  0.40821610  0.26833621  0.45707098     0.45600
H1038       H  0.44618039  0.22488383  0.40127009     0.37100
C1039       C  0.24880966  0.21153535  0.44370274    -0.27200
C1040       C  0.27134140  0.23660839  0.43456761     0.02400
C1041       C  0.30811982  0.24673457  0.43404668     0.30500
C1042       C  0.32194188  0.23164486  0.44262676    -0.19000
C1043       C  0.29933268  0.20624145  0.45167146    -0.28400
C1044       C  0.26245178  0.19586166  0.45209592     0.44500
C1045       C  0.25594028  0.25195154  0.42565950     0.05700
O1046       O  0.33078881  0.27192918  0.42539334    -0.56900
H1047       H  0.35032679  0.23954845  0.44216282     0.18700
O1048       O  0.23937160  0.16969982  0.46038560    -0.63600
H1049       H  0.22037621  0.20345529  0.44409470     0.17100
C1050       C  0.25148217  0.24249418  0.41271185     0.29400
C1051       C  0.23523985  0.25622549  0.40456712    -0.24500
C1052       C  0.22307697  0.27934726  0.40920004    -0.23800
C1053       C  0.22826991  0.28914290  0.42223133     0.40800
C1054       C  0.24425330  0.27515714  0.43031989    -0.26300
O1055       O  0.26243980  0.21944689  0.40798609    -0.58100
H1056       H  0.23180343  0.24837699  0.39464251     0.16400
O1057       O  0.21768824  0.31217924  0.42725261    -0.59600
H1058       H  0.24763376  0.28252533  0.44030015     0.14900
H1059       H  0.22980280  0.14661676  0.45564821     0.46700
H1060       H  0.24125711  0.19488109  0.40899581     0.42100
H1061       H  0.23912967  0.33667460  0.42645580     0.45600
H1062       H  0.33391789  0.25780746  0.41849483     0.37100
Zn1063     Zn  0.18784690  0.80649231  0.37387334     1.49700
Zn1064     Zn  0.16539668  0.83510233  0.39810142     1.49400
Zn1065     Zn  0.19449921  0.88508829  0.37393195     1.49100
Zn1066     Zn  0.11637509  0.81329393  0.37356687     1.49500
O1067       O  0.16605301  0.83500840  0.37977362    -1.83700
O1068       O  0.20513096  0.78791892  0.38851538    -0.74300
O1069       O  0.18977610  0.88519095  0.40514462    -0.74200
O1070       O  0.23609136  0.89162108  0.36298525    -0.73700
O1071       O  0.19136747  0.81097237  0.40509848    -0.74400
O1072       O  0.23047601  0.83705381  0.36282349    -0.74000
O1073       O  0.21257750  0.92129914  0.38846010    -0.74500
O1074       O  0.10972186  0.84851690  0.36291396    -0.73900
O1075       O  0.11500908  0.80945097  0.40480429    -0.74700
O1076       O  0.16459748  0.89662502  0.36231396    -0.74100
O1077       O  0.07952636  0.79428286  0.38787895    -0.74500
O1078       O  0.10644641  0.77360280  0.36119393    -0.74500
O1079       O  0.15458531  0.76661018  0.36195371    -0.74200
C1080       C  0.20555103  0.79335087  0.40046635     0.77500
C1081       C  0.20783685  0.91672083  0.40044158     0.78000
C1082       C  0.24608574  0.86967647  0.35902778     0.77000
C1083       C  0.13186014  0.87979023  0.35864842     0.77400
C1084       C  0.08366455  0.79485081  0.39990322     0.78500
C1085       C  0.12399033  0.75855279  0.35722378     0.77600
Zn1086     Zn  0.44987412  0.97648180  0.25930638     1.49700
Zn1087     Zn  0.02760136  0.55052845  0.25820201     1.49400
Zn1088     Zn  0.50188448  0.00314857  0.28249931     1.49100
Zn1089     Zn  0.02457067  0.97359044  0.25915171     1.49500
O1090       O  0.50085824  0.00084650  0.26443385    -1.83700
O1091       O  0.44036607  0.51043062  0.24870534    -0.74300
O1092       O  0.04518274  0.58801984  0.27248644    -0.74200
O1093       O  0.45439728  0.97171077  0.29008549    -0.73700
O1094       O  0.49471435  0.55937063  0.24690126    -0.74400
O1095       O  0.41479552  0.95691886  0.27445154    -0.74000
O1096       O  0.01868894  0.55215830  0.28900873    -0.74500
O1097       O  0.04413465  0.95825928  0.27411664    -0.73900
O1098       O  0.07074395  0.55804396  0.24791636    -0.74700
O1099       O  0.03429984  0.98765493  0.28959549    -0.74100
O1100       O  0.06747051  0.50439280  0.24795931    -0.74500
O1101       O  0.49007489  0.93036236  0.24892963    -0.74500
O1102       O  0.43988373  0.93406323  0.24818370    -0.74200
C1103       C  0.46116575  0.54189446  0.24417912     0.77500
C1104       C  0.03720350  0.58348730  0.28427895     0.78000
C1105       C  0.42205722  0.95617245  0.28617355     0.77000
C1106       C  0.04785259  0.96889930  0.28562597     0.77400
C1107       C  0.08298378  0.53740097  0.24453210     0.78500
C1108       C  0.45787296  0.91869296  0.24501936     0.77600
C1109       C  0.16589343  0.83314707  0.81186049     0.45900
H1110       H  0.16621779  0.83440451  0.82241128    -0.03200
C1111       C  0.16532994  0.83050138  0.78702356     0.45900
H1112       H  0.16516528  0.82900510  0.77646444    -0.03200
C1113       C  0.14653162  0.85183743  0.80548469    -0.16800
C1114       C  0.20407543  0.85188935  0.80569397    -0.16600
C1115       C  0.14652233  0.79416690  0.80632705    -0.17000
C1116       C  0.14557812  0.84922344  0.79239945    -0.17000
C1117       C  0.20319744  0.85042982  0.79266187    -0.16500
C1118       C  0.14706285  0.79351430  0.79328441    -0.16800
C1119       C  0.49964525  0.50088589  0.83212369     0.45900
H1120       H  0.50114678  0.50218352  0.82157672    -0.03200
C1121       C  0.49595931  0.49802836  0.85693016     0.45900
H1122       H  0.49389109  0.49633101  0.86747216    -0.03200
C1123       C  0.01820646  0.53854718  0.83871046    -0.16800
C1124       C  0.46055828  0.98196387  0.83747133    -0.16600
C1125       C  0.01734145  0.98019132  0.83830926    -0.17000
C1126       C  0.01711659  0.53644389  0.85178171    -0.17000
C1127       C  0.45932497  0.98111278  0.85047230    -0.16500
C1128       C  0.01469293  0.97873037  0.85135323    -0.16800
C1129       C  0.16642806  0.83678239  0.50006238     0.45900
H1130       H  0.16725853  0.83805973  0.48951186    -0.03200
C1131       C  0.16447028  0.83366264  0.52488648     0.45900
H1132       H  0.16352721  0.83234657  0.53545099    -0.03200
C1133       C  0.18675750  0.81830025  0.50589482    -0.16800
C1134       C  0.18346655  0.87440030  0.50665814    -0.16600
C1135       C  0.12759616  0.81543697  0.50571736    -0.17000
C1136       C  0.18495340  0.81654466  0.51894201    -0.17000
C1137       C  0.18264405  0.87209528  0.51970689    -0.16500
C1138       C  0.12726126  0.81429553  0.51877028    -0.16800
C1139       C  0.33160894  0.66848594  0.45384619     0.45900
H1140       H  0.33072762  0.66822906  0.44327159    -0.03200
C1141       C  0.33332692  0.66891028  0.47867619     0.45900
H1142       H  0.33398533  0.66904791  0.48923327    -0.03200
C1143       C  0.31430430  0.68866281  0.45983475    -0.16800
C1144       C  0.31216633  0.63092251  0.45967337    -0.16600
C1145       C  0.36971863  0.68647739  0.45920594    -0.17000
C1146       C  0.31502500  0.68949974  0.47289556    -0.17000
C1147       C  0.31233181  0.63037894  0.47273035    -0.16500
C1148       C  0.37141516  0.68658310  0.47228514    -0.16800
Zn1149     Zn  0.33187786  0.66641014  0.58006732     1.49700
Zn1150     Zn  0.30287444  0.68812488  0.60403844     1.49400
Zn1151     Zn  0.31416777  0.61899351  0.60499628     1.49100
Zn1152     Zn  0.38272347  0.69827790  0.60387417     1.49500
O1153       O  0.33286735  0.66796491  0.59837641    -1.83700
O1154       O  0.30584898  0.68997733  0.57263478    -0.74300
O1155       O  0.26360782  0.65379063  0.61584112    -0.74200
O1156       O  0.29410811  0.58115665  0.59104713    -0.73700
O1157       O  0.28145236  0.70161113  0.58930685    -0.74400
O1158       O  0.30638427  0.61598868  0.57404982    -0.74000
O1159       O  0.27453169  0.60809052  0.61746326    -0.74500
O1160       O  0.39707108  0.67134951  0.61602750    -0.73900
O1161       O  0.33261646  0.73263739  0.61447437    -0.74700
O1162       O  0.35193687  0.61473818  0.61514473    -0.74100
O1163       O  0.38844165  0.74133507  0.61352304    -0.74500
O1164       O  0.41753929  0.71414463  0.58913745    -0.74500
O1165       O  0.38117022  0.68969089  0.57264301    -0.74200
C1166       C  0.28613944  0.70171942  0.57733028     0.77500
C1167       C  0.25713850  0.62389629  0.62079403     0.78000
C1168       C  0.29280830  0.58488078  0.57906355     0.77000
C1169       C  0.38264400  0.63841131  0.61941769     0.77400
C1170       C  0.36587921  0.75045542  0.61750364     0.78500
C1171       C  0.41273450  0.70787355  0.57725426     0.77600
Zn1172     Zn  0.44995782  0.98032714  0.70726183     1.49700
Zn1173     Zn  0.01965286  0.96934371  0.70722624     1.49400
Zn1174     Zn  0.02937146  0.54926244  0.70765547     1.49100
Zn1175     Zn  0.99882946  0.49836505  0.73159314     1.49500
O1176       O  0.99947938  0.49929810  0.71329105    -1.83700
O1177       O  0.43793717  0.94014231  0.69496891    -0.74300
O1178       O  0.06413698  0.49939491  0.69677336    -0.74200
O1179       O  0.50165232  0.56321850  0.69572258    -0.73700
O1180       O  0.48480411  0.93089583  0.69526231    -0.74400
O1181       O  0.44538726  0.51751139  0.69684700    -0.74000
O1182       O  0.07164010  0.55475396  0.69752749    -0.74500
O1183       O  0.02510489  0.54760663  0.73902010    -0.73900
O1184       O  0.03312830  0.94677611  0.72170525    -0.74700
O1185       O  0.04755313  0.58421703  0.72242267    -0.74100
O1186       O  0.02181925  0.97141368  0.73838262    -0.74500
O1187       O  0.44879342  0.97348584  0.73833994    -0.74500
O1188       O  0.41305388  0.96087542  0.72162161    -0.74200
C1189       C  0.45403365  0.92368138  0.69094394     0.77500
C1190       C  0.08132460  0.53258042  0.69358017     0.78000
C1191       C  0.46864885  0.54813633  0.69235735     0.77000
C1192       C  0.04345762  0.57916494  0.73439740     0.77400
C1193       C  0.03346032  0.95169528  0.73368024     0.78500
C1194       C  0.41739046  0.95976500  0.73358061     0.77600
C1195       C  0.33541990  0.66892323  0.16603760     0.45900
H1196       H  0.33529224  0.66883902  0.15547726    -0.03200
C1197       C  0.33567280  0.66891264  0.19088412     0.45900
H1198       H  0.33583877  0.66894644  0.20146421    -0.03200
C1199       C  0.29709163  0.64776440  0.17218962    -0.16800
C1200       C  0.35690242  0.65184905  0.17204008    -0.16600
C1201       C  0.35256920  0.70734340  0.17201491    -0.17000
C1202       C  0.29794228  0.64843076  0.18525852    -0.17000
C1203       C  0.35599976  0.65154932  0.18509599    -0.16500
C1204       C  0.35288713  0.70657195  0.18507420    -0.16800
C1205       C  0.50253050  0.50262776  0.12021025     0.45900
H1206       H  0.50226559  0.50251722  0.10962898    -0.03200
C1207       C  0.50285597  0.50274409  0.14505119     0.45900
H1208       H  0.00298472  0.50286615  0.15558792    -0.03200
C1209       C  0.48511690  0.52290896  0.12598962    -0.16800
C1210       C  0.48232678  0.96508934  0.12597614    -0.16600
C1211       C  0.04030349  0.52005152  0.12580927    -0.17000
C1212       C  0.48547492  0.52389543  0.13905198    -0.17000
C1213       C  0.48163523  0.96426933  0.13903607    -0.16500
C1214       C  0.04120074  0.52007383  0.13889229    -0.16800
Zn1215     Zn  0.21776307  0.86180323  0.93611694     1.49700
Zn1216     Zn  0.16494831  0.83190461  0.91222513     1.49400
Zn1217     Zn  0.14409247  0.78445071  0.93720776     1.49100
Zn1218     Zn  0.14200135  0.85898245  0.93653455     1.49500
O1219       O  0.16722131  0.83419933  0.93060349    -1.83700
O1220       O  0.25179507  0.87520389  0.92117797    -0.74300
O1221       O  0.14136965  0.78104578  0.90607579    -0.74200
O1222       O  0.17820876  0.77895049  0.94893079    -0.73700
O1223       O  0.21433476  0.85569381  0.90474002    -0.74400
O1224       O  0.22840877  0.83236147  0.94836855    -0.74000
O1225       O  0.12816129  0.74652836  0.92318606    -0.74500
O1226       O  0.10312887  0.82741944  0.94867148    -0.73900
O1227       O  0.13759010  0.85484911  0.90504334    -0.74700
O1228       O  0.10179893  0.77456865  0.94846511    -0.74100
O1229       O  0.12051950  0.87337149  0.92205589    -0.74500
O1230       O  0.17432288  0.90222387  0.94716595    -0.74500
O1231       O  0.22826130  0.90635881  0.94630931    -0.74200
C1232       C  0.24617058  0.87087796  0.90923454     0.77500
C1233       C  0.12885502  0.75003245  0.91112478     0.78000
C1234       C  0.21018877  0.80040922  0.95275533     0.77000
C1235       C  0.09042730  0.79519033  0.95266088     0.77400
C1236       C  0.12112662  0.86987571  0.91003043     0.78500
C1237       C  0.20727955  0.91724048  0.95054004     0.77600
Zn1238     Zn  0.36099192  0.64458663  0.04044473     1.49700
Zn1239     Zn  0.28659953  0.64732320  0.03995120     1.49400
Zn1240     Zn  0.33544352  0.66979541  0.06475225     1.49100
Zn1241     Zn  0.36256273  0.72061392  0.04099006     1.49500
O1242       O  0.33624630  0.67033883  0.04640355    -1.83700
O1243       O  0.32908816  0.60432730  0.02840319    -0.74300
O1244       O  0.24991951  0.62612504  0.05435875    -0.74200
O1245       O  0.36192616  0.64639247  0.07182501    -0.73700
O1246       O  0.27896300  0.60802245  0.02750126    -0.74400
O1247       O  0.37715867  0.62511126  0.05511368    -0.74000
O1248       O  0.28537578  0.64239972  0.07130721    -0.74500
O1249       O  0.37869628  0.75584766  0.05553075    -0.73900
O1250       O  0.27782163  0.68272287  0.02979793    -0.74700
O1251       O  0.35706608  0.71921013  0.07209141    -0.74100
O1252       O  0.33197364  0.73188780  0.02985549    -0.74500
O1253       O  0.40466262  0.72977899  0.03016454    -0.74500
O1254       O  0.40459461  0.67760347  0.02991305    -0.74200
C1255       C  0.29789550  0.59413757  0.02376237     0.77500
C1256       C  0.25408776  0.62665553  0.06639120     0.78000
C1257       C  0.37628247  0.62904621  0.06711598     0.77000
C1258       C  0.37353536  0.75088699  0.06745756     0.77400
C1259       C  0.29939464  0.71493624  0.02612080     0.78500
C1260       C  0.41766290  0.71026617  0.02631497     0.77600
C1261       C  0.30020752  0.77136084  0.99820727    -0.27200
C1262       C  0.26322575  0.75844235  0.99639396     0.02400
C1263       C  0.23827443  0.73353883  0.00520941     0.30500
C1264       C  0.25031470  0.72027395  0.01511783    -0.19000
C1265       C  0.28728874  0.73236823  0.01666936    -0.28400
C1266       C  0.31237617  0.75913896  0.00834016     0.44500
C1267       C  0.25092937  0.76947361  0.98490625     0.05700
O1268       O  0.20197848  0.72140857  0.00407667    -0.56900
H1269       H  0.23063597  0.70014106  0.02150157     0.18700
O1270       O  0.34877299  0.77168282  0.00940450    -0.63600
H1271       H  0.31982563  0.79000813  0.99145942     0.17100
C1272       C  0.26680061  0.80602024  0.98121952     0.29400
C1273       C  0.25419794  0.81546358  0.97042197    -0.24500
C1274       C  0.22574418  0.78895979  0.96312489    -0.23800
C1275       C  0.21077540  0.75230500  0.96658729     0.40800
C1276       C  0.22349235  0.74288198  0.97733669    -0.26300
O1277       O  0.29315229  0.83286411  0.98851264    -0.58100
H1278       H  0.26594629  0.84385047  0.96805273     0.16400
O1279       O  0.18331438  0.72541538  0.95968082    -0.59600
H1280       H  0.21177743  0.71454599  0.97977297     0.14900
H1281       H  0.35826469  0.79422829  0.01446879     0.46700
H1282       H  0.31566749  0.84251614  0.98340912     0.42100
H1283       H  0.19548560  0.71924759  0.95287268     0.45600
H1284       H  0.19819341  0.74021129  0.00821008     0.37100
C1285       C  0.21023650  0.96891960  0.98027768    -0.27200
C1286       C  0.24669252  0.99584768  0.98075961     0.02400
C1287       C  0.27010629  0.99793535  0.97088117     0.30500
C1288       C  0.25701984  0.97280986  0.96087043    -0.19000
C1289       C  0.22045033  0.94580085  0.96041834    -0.28400
C1290       C  0.19706354  0.94410093  0.97027175     0.44500
C1291       C  0.25998439  0.52100131  0.99176441     0.05700
O1292       O  0.30588786  0.52443460  0.97089600    -0.56900
H1293       H  0.27548877  0.97437904  0.95347208     0.18700
O1294       O  0.16152257  0.91726745  0.97054416    -0.63600
H1295       H  0.19200895  0.96646314  0.98790532     0.17100
C1296       C  0.24317991  0.54109362  0.99517310     0.29400
C1297       C  0.25523184  0.56392430  0.00578088    -0.24500
C1298       C  0.28402449  0.56717836  0.01326039    -0.23800
C1299       C  0.30045340  0.54648567  0.00994169     0.40800
C1300       C  0.28848112  0.52379485  0.99925615    -0.26300
O1301       O  0.21601654  0.53985045  0.98782516    -0.58100
H1302       H  0.24240683  0.57979624  0.00795000     0.16400
O1303       O  0.32836634  0.54832204  0.01698059    -0.59600
H1304       H  0.30124996  0.50798583  0.99688934     0.14900
H1305       H  0.16142975  0.89673883  0.97502743     0.46700
H1306       H  0.19352317  0.52555267  0.99281368     0.42100
H1307       H  0.31667443  0.52923436  0.02354853     0.45600
H1308       H  0.30657927  0.54532063  0.96647233     0.37100
C1309       C  0.01539582  0.73539270  0.97550919    -0.27200
C1310       C  0.01911730  0.76072292  0.98478548     0.02400
C1311       C  0.04551682  0.79723805  0.98326161     0.30500
C1312       C  0.06769697  0.80807632  0.97250756    -0.19000
C1313       C  0.06414470  0.78284225  0.96319428    -0.28400
C1314       C  0.03768731  0.74624394  0.96473382     0.44500
C1315       C  0.49463854  0.74892864  0.99584802     0.05700
O1316       O  0.05090974  0.82209546  0.99255000    -0.56900
H1317       H  0.08853181  0.83619098  0.97166099     0.18700
O1318       O  0.03331813  0.72096601  0.95577676    -0.63600
H1319       H  0.49490041  0.70714369  0.97655433     0.17100
C1320       C  0.47125138  0.76287224  0.99778767     0.29400
C1321       C  0.44781358  0.75138958  0.00817943    -0.24500
C1322       C  0.44647911  0.72516756  0.01660212    -0.23800
C1323       C  0.47017255  0.71139768  0.01471854     0.40800
C1324       C  0.49404536  0.72331246  0.00436469    -0.26300
O1325       O  0.47024879  0.78684464  0.98932196    -0.58100
H1326       H  0.42939789  0.76185153  0.00928403     0.16400
O1327       O  0.46993735  0.68605269  0.02281090    -0.59600
H1328       H  0.01204089  0.71262740  0.00294117     0.14900
H1329       H  0.01680669  0.72186946  0.94934143     0.46700
H1330       H  0.45242121  0.77163942  0.98277533     0.42100
H1331       H  0.48632145  0.70013190  0.02986744     0.45600
H1332       H  0.04205432  0.83772907  0.98890002     0.37100
C1333       C  0.45816272  0.87697828  0.10959872    -0.27200
C1334       C  0.43189406  0.87426865  0.10095650     0.02400
C1335       C  0.42191379  0.90115553  0.10071309     0.30500
C1336       C  0.43833194  0.93042746  0.10907077    -0.19000
C1337       C  0.46464966  0.93315021  0.11765733    -0.28400
C1338       C  0.47488717  0.90646957  0.11782377     0.44500
C1339       C  0.41524978  0.84311871  0.09226934     0.05700
O1340       O  0.39522620  0.89821883  0.09269360    -0.56900
H1341       H  0.43039690  0.95098010  0.10890744     0.18700
O1342       O  0.50152319  0.90926841  0.12582720    -0.63600
H1343       H  0.46615341  0.85647271  0.10978259     0.17100
C1344       C  0.41919640  0.84781452  0.07901211     0.29400
C1345       C  0.40505032  0.81762027  0.07103284    -0.24500
C1346       C  0.38695118  0.78241639  0.07610383    -0.23800
C1347       C  0.38228470  0.77799363  0.08943983     0.40800
C1348       C  0.39673443  0.80822270  0.09737165    -0.26300
O1349       O  0.43752649  0.88175298  0.07377640    -0.58100
H1350       H  0.40877735  0.82187251  0.06085765     0.16400
O1351       O  0.36433719  0.74434408  0.09490611    -0.59600
H1352       H  0.39355396  0.80442706  0.10758473     0.14900
H1353       H  0.52456935  0.92563450  0.12143094     0.46700
H1354       H  0.46343532  0.88879254  0.07425958     0.42100
H1355       H  0.33884868  0.73868409  0.09565227     0.45600
H1356       H  0.40767646  0.91751956  0.08624168     0.37100
C1357       C  0.40792711  0.60298452  0.09709179    -0.27200
C1358       C  0.42287911  0.58297088  0.09200358     0.02400
C1359       C  0.42209783  0.57757584  0.07879477     0.30500
C1360       C  0.40676530  0.59259092  0.07080315    -0.19000
C1361       C  0.39210172  0.61317714  0.07581716    -0.28400
C1362       C  0.39258243  0.61801342  0.08916714     0.44500
C1363       C  0.43895804  0.56765497  0.10065806     0.05700
O1364       O  0.43491762  0.55642177  0.07370207    -0.56900
H1365       H  0.40628638  0.58793001  0.06065701     0.18700
O1366       O  0.37868866  0.63779484  0.09462395    -0.63600
H1367       H  0.40836673  0.60715821  0.10727898     0.17100
C1368       C  0.47618178  0.57955839  0.10026744     0.29400
C1369       C  0.49092094  0.56514644  0.10875996    -0.24500
C1370       C  0.46890048  0.53894353  0.11766980    -0.23800
C1371       C  0.43159830  0.52674694  0.11799175     0.40800
C1372       C  0.41688862  0.54134412  0.10954367    -0.26300
O1373       O  0.49842252  0.60616431  0.09192986    -0.58100
H1374       H  0.51963984  0.57446540  0.10841348     0.16400
O1375       O  0.40920101  0.99919986  0.12598019    -0.59600
H1376       H  0.38810750  0.53174941  0.10979190     0.14900
H1377       H  0.35345912  0.61985052  0.09696530     0.46700
H1378       H  0.50617525  0.59402252  0.08562743     0.42100
H1379       H  0.39785019  0.00947656  0.13160852     0.45600
H1380       H  0.45722871  0.57329896  0.06901873     0.37100
C1381       C  0.19585044  0.59056440  0.09610792    -0.27200
C1382       C  0.16137298  0.57906132  0.09119365     0.02400
C1383       C  0.15713007  0.58242118  0.07809533     0.30500
C1384       C  0.18743078  0.59751660  0.07007747    -0.19000
C1385       C  0.22220251  0.60926925  0.07495456    -0.28400
C1386       C  0.22608852  0.60526536  0.08814010     0.44500
C1387       C  0.13017462  0.56395801  0.09994223     0.05700
O1388       O  0.12371979  0.57269914  0.07319162    -0.56900
H1389       H  0.18367975  0.60056813  0.06005992     0.18700
O1390       O  0.25928538  0.61596927  0.09343527    -0.63600
H1391       H  0.19929235  0.58795718  0.10619337     0.17100
C1392       C  0.10316296  0.52742854  0.09917261     0.29400
C1393       C  0.07447038  0.51340267  0.10785464    -0.24500
C1394       C  0.07220287  0.53550497  0.11728235    -0.23800
C1395       C  0.09886939  0.57229408  0.11787065     0.40800
C1396       C  0.12796717  0.58612253  0.10936761    -0.26300
O1397       O  0.10541283  0.50502905  0.09027700    -0.58100
H1398       H  0.05395051  0.98515945  0.10727046     0.16400
O1399       O  0.09640759  0.59509992  0.12651483    -0.59600
H1400       H  0.14858221  0.61436676  0.10997579     0.14900
H1401       H  0.26222296  0.59429734  0.09310117     0.46700
H1402       H  0.08628568  0.00027067  0.08400139     0.42100
H1403       H  0.07889758  0.60144601  0.12281091     0.45600
H1404       H  0.11705214  0.55097488  0.06791354     0.37100
C1405       C  0.42383373  0.54744099  0.15793105    -0.27200
C1406       C  0.43639270  0.58330652  0.15392245     0.02400
C1407       C  0.46831142  0.60066183  0.14662290     0.30500
C1408       C  0.48595542  0.58181917  0.14290933    -0.19000
C1409       C  0.47206704  0.54527123  0.14614922    -0.28400
C1410       C  0.44152263  0.52845829  0.15412009     0.44500
C1411       C  0.41633079  0.60261391  0.15733097     0.05700
O1412       O  0.48163793  0.63561031  0.14257076    -0.56900
H1413       H  0.50951012  0.59519955  0.13679968     0.18700
O1414       O  0.42773097  0.99306446  0.15768675    -0.63600
H1415       H  0.39984548  0.53390941  0.16381731     0.17100
C1416       C  0.37974784  0.58879283  0.15394771     0.29400
C1417       C  0.36117773  0.60694875  0.15769977    -0.24500
C1418       C  0.37855217  0.63868689  0.16497049    -0.23800
C1419       C  0.41573610  0.65367441  0.16762139     0.40800
C1420       C  0.43416620  0.63558369  0.16391205    -0.26300
O1421       O  0.36202442  0.55767591  0.14691701    -0.58100
H1422       H  0.33264814  0.59504845  0.15559960     0.16400
O1423       O  0.43380839  0.68498139  0.17454315    -0.59600
H1424       H  0.46231760  0.64686208  0.16650896     0.14900
H1425       H  0.41078704  0.97856333  0.15082160     0.46700
H1426       H  0.34726726  0.53840684  0.15313519     0.42100
H1427       H  0.43994828  0.70477393  0.16836293     0.45600
H1428       H  0.46839424  0.63371653  0.13460212     0.37100
C1429       C  0.45795783  0.87805201  0.15727586    -0.27200
C1430       C  0.42172835  0.85533629  0.15358649     0.02400
C1431       C  0.40435177  0.87068433  0.14666433     0.30500
C1432       C  0.42333839  0.90726986  0.14311991    -0.19000
C1433       C  0.46013030  0.92936381  0.14610151    -0.28400
C1434       C  0.47702712  0.91478837  0.15365158     0.44500
C1435       C  0.40216739  0.81585017  0.15696037     0.01500
O1436       O  0.36923757  0.84971951  0.14276252    -0.56900
H1437       H  0.40983167  0.91793112  0.13729293     0.18700
O1438       O  0.01295344  0.93533394  0.15668353    -0.63600
H1439       H  0.47172538  0.86708334  0.16279197     0.17100
C1440       C  0.41624365  0.79292005  0.15382043     0.29400
C1441       C  0.39818244  0.75639949  0.15772135    -0.24500
C1442       C  0.36614754  0.74219467  0.16488577    -0.23800
C1443       C  0.35092170  0.76445051  0.16726916     0.40800
C1444       C  0.36889534  0.80078685  0.16340692    -0.26300
O1445       O  0.44817934  0.80616212  0.14726132    -0.58100
H1446       H  0.41044791  0.73984512  0.15586407     0.16400
O1447       O  0.31934342  0.75140841  0.17404381    -0.59600
H1448       H  0.35731980  0.81761861  0.16585186     0.14900
H1449       H  0.01340608  0.94767671  0.16474212     0.46700
H1450       H  0.44178078  0.80651289  0.13821798     0.42100
H1451       H  0.29983620  0.73972750  0.16764437     0.45600
H1452       H  0.37085478  0.84115511  0.13413716     0.37100
C1453       C  0.20399786  0.57157193  0.16358639    -0.27200
C1454       C  0.18845263  0.59020149  0.15770692     0.02400
C1455       C  0.21082219  0.62740905  0.15503963     0.30500
C1456       C  0.24744268  0.64549786  0.15870221    -0.19000
C1457       C  0.26224161  0.62708540  0.16517615    -0.28400
C1458       C  0.24044251  0.58956388  0.16720068     0.44500
C1459       C  0.14929166  0.57019041  0.15407980     0.05700
O1460       O  0.19697662  0.64658624  0.14915405    -0.56900
H1461       H  0.26365660  0.67440212  0.15721037     0.18700
O1462       O  0.25403989  0.57057513  0.17338856    -0.63600
H1463       H  0.18752633  0.54301751  0.16569129     0.17100
C1464       C  0.13543474  0.53856867  0.14662488     0.29400
C1465       C  0.09921085  0.52071110  0.14279221    -0.24500
C1466       C  0.07604381  0.53416876  0.14595483    -0.23800
C1467       C  0.08916516  0.56476973  0.15389451     0.40800
C1468       C  0.12552882  0.58253339  0.15791286    -0.26300
O1469       O  0.15755568  0.52579470  0.14248481    -0.58100
H1470       H  0.08964776  0.49729200  0.13664900     0.16400
O1471       O  0.06724326  0.57851064  0.15726982    -0.59600
H1472       H  0.13538395  0.60641674  0.16382429     0.14900
H1473       H  0.26753938  0.56537278  0.16680672     0.46700
H1474       H  0.16846380  0.53906096  0.13446942     0.42100
H1475       H  0.07029570  0.59582635  0.15043301     0.45600
H1476       H  0.19772005  0.64205024  0.13993261     0.37100
C1477       C  0.43982373  0.64113036  0.64752767    -0.27200
C1478       C  0.42810463  0.60427380  0.64918509     0.02400
C1479       C  0.40408105  0.57920631  0.64026078     0.30500
C1480       C  0.39047559  0.59083710  0.63035813    -0.19000
C1481       C  0.40094425  0.62754807  0.62898650    -0.28400
C1482       C  0.42657284  0.65289765  0.63753598     0.44500
C1483       C  0.43892932  0.59189729  0.66069755     0.05700
O1484       O  0.39307265  0.54310142  0.64131155    -0.56900
H1485       H  0.37116325  0.57089750  0.62385489     0.18700
O1486       O  0.43770914  0.68905945  0.63660072    -0.63600
H1487       H  0.45807281  0.66077226  0.65433822     0.17100
C1488       C  0.47542486  0.60671885  0.66420081     0.29400
C1489       C  0.48459655  0.59339053  0.67489801    -0.24500
C1490       C  0.45777807  0.56534628  0.68231569    -0.23800
C1491       C  0.42114578  0.55185947  0.67910439     0.40800
C1492       C  0.41208470  0.56507362  0.66839029    -0.26300
O1493       O  0.50238925  0.63261285  0.65679359    -0.58100
H1494       H  0.01301508  0.60448884  0.67711769     0.16400
O1495       O  0.39388991  0.52509677  0.68614814    -0.59600
H1496       H  0.38380928  0.55412654  0.66603740     0.14900
H1497       H  0.42105969  0.69284547  0.64217288     0.46700
H1498       H  0.01193116  0.65580123  0.66179193     0.42100
H1499       H  0.38611731  0.03737698  0.69212451     0.45600
H1500       H  0.41025661  0.53946505  0.63599228     0.37100
C1501       C  0.39899363  0.87431312  0.66186445    -0.27200
C1502       C  0.41236862  0.85090238  0.65918289     0.02400
C1503       C  0.43783424  0.84989876  0.66744024     0.30500
C1504       C  0.45045282  0.87300100  0.67794576    -0.19000
C1505       C  0.43757452  0.89697580  0.68054479    -0.28400
C1506       C  0.41107645  0.89698813  0.67248095     0.44500
C1507       C  0.40003991  0.82800451  0.64766334     0.05700
O1508       O  0.45079560  0.82663320  0.66526110    -0.56900
H1509       H  0.97068538  0.87233503  0.68400491     0.18700
O1510       O  0.39829791  0.92050515  0.67440936    -0.63600
H1511       H  0.37972463  0.87569788  0.65551983     0.17100
C1512       C  0.36302864  0.80473852  0.64535017     0.29400
C1513       C  0.35220527  0.78123489  0.63494953    -0.24500
C1514       C  0.37787486  0.78041420  0.62673862    -0.23800
C1515       C  0.41483611  0.80542412  0.62861690     0.40800
C1516       C  0.42561455  0.82889528  0.63902503    -0.26300
O1517       O  0.33740894  0.80279734  0.65374136    -0.58100
H1518       H  0.32366645  0.76221277  0.63375924     0.16400
O1519       O  0.44077272  0.80639185  0.62061690    -0.59600
H1520       H  0.45415387  0.84742576  0.64050169     0.14900
H1521       H  0.37555181  0.90654376  0.67929849     0.46700
H1522       H  0.32572711  0.81499902  0.64941322     0.42100
H1523       H  0.44321851  0.82333588  0.61372156     0.45600
H1524       H  0.43374710  0.80397612  0.66972906     0.37100
C1525       C  0.18074906  0.60440544  0.64372997    -0.27200
C1526       C  0.18603614  0.58380587  0.65300420     0.02400
C1527       C  0.21326603  0.57471706  0.65122189     0.30500
C1528       C  0.23511311  0.58667295  0.64038987    -0.19000
C1529       C  0.23066097  0.60826629  0.63127290    -0.28400
C1530       C  0.20282250  0.61668289  0.63293289     0.44500
C1531       C  0.16234825  0.57118351  0.66432591     0.05700
O1532       O  0.21926729  0.55483436  0.66015043    -0.56900
H1533       H  0.25651330  0.58010376  0.63937841     0.18700
O1534       O  0.19699447  0.63694783  0.62411923    -0.63600
H1535       H  0.15928952  0.61084836  0.64484067     0.17100
C1536       C  0.15831037  0.59568916  0.67218213     0.29400
C1537       C  0.13333070  0.58281198  0.68217717    -0.24500
C1538       C  0.11173740  0.54547955  0.68442816    -0.23800
C1539       C  0.11714972  0.52109213  0.67687399     0.40800
C1540       C  0.14235575  0.53408447  0.66695691    -0.26300
O1541       O  0.17893762  0.63227143  0.67021715    -0.58100
H1542       H  0.13013968  0.60216754  0.68793046     0.16400
O1543       O  0.09746979  0.98460407  0.67882127    -0.59600
H1544       H  0.14523154  0.51494438  0.66096327     0.14900
H1545       H  0.18075068  0.61933363  0.61769794     0.46700
H1546       H  0.16239257  0.63965129  0.66634147     0.42100
H1547       H  0.07671128  0.97609974  0.67291147     0.45600
H1548       H  0.23592627  0.57275241  0.66641359     0.37100
C1549       C  0.25429637  0.52615914  0.54970789    -0.27200
C1550       C  0.24326685  0.99186849  0.55462214     0.02400
C1551       C  0.24766182  0.48764278  0.56765877     0.30500
C1552       C  0.26378929  0.51808371  0.57557437    -0.19000
C1553       C  0.27522818  0.55280703  0.57065195    -0.28400
C1554       C  0.26984433  0.55648526  0.55756535     0.44500
C1555       C  0.22769302  0.96074486  0.54592960     0.05700
O1556       O  0.23822663  0.95430357  0.57251646    -0.56900
H1557       H  0.26764503  0.51447446  0.58553454     0.18700
O1558       O  0.27987397  0.58955924  0.55225186    -0.63600
H1559       H  0.25074996  0.52944878  0.53968329     0.17100
C1560       C  0.19087234  0.93457278  0.54656918     0.29400
C1561       C  0.17649605  0.90592839  0.53788489    -0.24500
C1562       C  0.19850245  0.90328984  0.52849545    -0.23800
C1563       C  0.23546176  0.92936792  0.52795725     0.40800
C1564       C  0.24972695  0.95812756  0.53656333    -0.26300
O1565       O  0.16857297  0.93778440  0.55526787    -0.58100
H1566       H  0.14800770  0.88596596  0.53836173     0.16400
O1567       O  0.25783238  0.92685731  0.51911889    -0.59600
H1568       H  0.27812615  0.97831647  0.53600692     0.14900
H1569       H  0.25853440  0.59284899  0.55326254     0.46700
H1570       H  0.16313640  0.91876712  0.56171210     0.42100
H1571       H  0.27026740  0.91579478  0.52366163     0.45600
H1572       H  0.21552599  0.94686897  0.57730412     0.37100
C1573       C  0.05998500  0.75337648  0.54347447    -0.27200
C1574       C  0.03277152  0.76250010  0.54226140     0.02400
C1575       C  0.03608630  0.78795137  0.53307685     0.30500
C1576       C  0.06701711  0.80475316  0.52546306    -0.19000
C1577       C  0.09428020  0.79564357  0.52666273    -0.28400
C1578       C  0.09049959  0.76955107  0.53566791     0.44500
C1579       C  0.00214397  0.74706710  0.55118145     0.05700
O1580       O  0.01018550  0.79798079  0.53200169    -0.56900
H1581       H  0.07002688  0.82541083  0.51878496     0.18700
O1582       O  0.11656830  0.75985915  0.53697560    -0.63600
H1583       H  0.05756646  0.73376870  0.55053352     0.17100
C1584       C  0.46664101  0.72551847  0.54687048     0.29400
C1585       C  0.43792130  0.71289689  0.55546409    -0.24500
C1586       C  0.44405196  0.72154538  0.56849482    -0.23800
C1587       C  0.47994383  0.74289269  0.57281775     0.40800
C1588       C  0.00862366  0.75507197  0.56415559    -0.26300
O1589       O  0.45975294  0.71647356  0.53425435    -0.58100
H1590       H  0.41075209  0.69627315  0.55186067     0.16400
O1591       O  0.48745471  0.75169219  0.58542221    -0.59600
H1592       H  0.03603781  0.77171285  0.56755544     0.14900
H1593       H  0.11001995  0.74000612  0.53077744     0.46700
H1594       H  0.46269081  0.69494203  0.53316399     0.42100
H1595       H  0.48983884  0.77597398  0.58629208     0.45600
H1596       H  0.99688259  0.78633450  0.52407651     0.37100
C1597       C  0.23536779  0.79876770  0.54495233    -0.27200
C1598       C  0.22521715  0.76249415  0.54270656     0.02400
C1599       C  0.20201043  0.74400131  0.53248671     0.30500
C1600       C  0.18923558  0.76194382  0.52473912    -0.19000
C1601       C  0.19972572  0.79835073  0.52694954    -0.28400
C1602       C  0.22285110  0.81671428  0.53716080     0.44500
C1603       C  0.23867923  0.74452855  0.55137098     0.05700
O1604       O  0.19012505  0.70798182  0.53047496    -0.56900
H1605       H  0.17046213  0.74716965  0.51716123     0.18700
O1606       O  0.23327034  0.85218718  0.53961897    -0.63600
H1607       H  0.25326232  0.81332200  0.55277184     0.17100
C1608       C  0.25875127  0.72881990  0.54678811     0.29400
C1609       C  0.27326245  0.71432421  0.55533202    -0.24500
C1610       C  0.26880340  0.71585494  0.56856507    -0.23800
C1611       C  0.24864353  0.73169652  0.57309961     0.40800
C1612       C  0.23360381  0.74555939  0.56451918    -0.26300
O1613       O  0.26534614  0.72850931  0.53402142    -0.58100
H1614       H  0.28872825  0.70251729  0.55153953     0.16400
O1615       O  0.24365555  0.73416355  0.58587467    -0.59600
H1616       H  0.21835666  0.75778433  0.56816778     0.14900
H1617       H  0.25906510  0.86604536  0.53709637     0.46700
H1618       H  0.28729794  0.75207343  0.53228964     0.42100
H1619       H  0.26384765  0.75807953  0.58848123     0.45600
H1620       H  0.20089909  0.70678418  0.52223866     0.37100
C1621       C  0.20267302  0.96940667  0.49903634    -0.27200
C1622       C  0.23505542  0.98351430  0.49207847     0.02400
C1623       C  0.24803003  0.95989353  0.48862375     0.30500
C1624       C  0.22950399  0.92343191  0.49253556    -0.19000
C1625       C  0.19806655  0.90997575  0.49999036    -0.28400
C1626       C  0.18412651  0.93309462  0.50285390     0.44500
C1627       C  0.25437265  0.52258879  0.48832184     0.05700
O1628       O  0.27914371  0.97230190  0.48162233    -0.56900
H1629       H  0.24075214  0.90617060  0.49031933     0.18700
O1630       O  0.15312443  0.92082253  0.50992299    -0.63600
H1631       H  0.19207983  0.98686766  0.50179361     0.17100
C1632       C  0.23620306  0.53735580  0.48156237     0.29400
C1633       C  0.25494494  0.57339741  0.47743074    -0.24500
C1634       C  0.29198728  0.59564691  0.47990297    -0.23800
C1635       C  0.30982873  0.58170798  0.48726528     0.40800
C1636       C  0.29108839  0.54541292  0.49138688    -0.26300
O1637       O  0.20073426  0.01603375  0.47810636    -0.58100
H1638       H  0.24081545  0.58359673  0.47171340     0.16400
O1639       O  0.34579578  0.60287147  0.49009803    -0.59600
H1640       H  0.30539483  0.53488917  0.49682681     0.14900
H1641       H  0.13306567  0.90812650  0.50378269     0.46700
H1642       H  0.18695580  0.02363942  0.48371114     0.42100
H1643       H  0.35895176  0.60034643  0.48273412     0.45600
H1644       H  0.27168906  0.47175189  0.47271751     0.37100
C1645       C  0.45634313  0.74927676  0.49109901    -0.27200
C1646       C  0.48075567  0.73850327  0.48657738     0.02400
C1647       C  0.46732559  0.70776061  0.47867544     0.30500
C1648       C  0.43077127  0.68903558  0.47522304    -0.19000
C1649       C  0.40684705  0.70102573  0.47906729    -0.28400
C1650       C  0.41969871  0.73085139  0.48737361     0.44500
C1651       C  0.01997010  0.75861885  0.49024903     0.05700
O1652       O  0.49008851  0.69667479  0.47377303    -0.56900
H1653       H  0.42149116  0.66620863  0.46880921     0.18700
O1654       O  0.39717555  0.74325856  0.49139962    -0.63600
H1655       H  0.46584450  0.77240130  0.49737346     0.17100
C1656       C  0.04168376  0.79640289  0.48851499     0.29400
C1657       C  0.07805207  0.81457237  0.49250903    -0.24500
C1658       C  0.09335123  0.79559650  0.49828434    -0.23800
C1659       C  0.07215184  0.75771370  0.49945684     0.40800
C1660       C  0.03597730  0.73966189  0.49552599    -0.26300
O1661       O  0.02743399  0.81597960  0.48321601    -0.58100
H1662       H  0.09368247  0.84376195  0.49176840     0.16400
O1663       O  0.08585194  0.73835139  0.50531223    -0.59600
H1664       H  0.01995584  0.71074251  0.49702037     0.14900
H1665       H  0.40067407  0.76230513  0.48521952     0.46700
H1666       H  0.02886272  0.81328934  0.47389306     0.42100
H1667       H  0.09901632  0.73335487  0.49854840     0.45600
H1668       H  0.99942481  0.71032499  0.46573374     0.37100
C1669       C  0.25063984  0.71167083  0.49061866    -0.27200
C1670       C  0.26519312  0.74856172  0.48758582     0.02400
C1671       C  0.29897885  0.76652096  0.48135107     0.30500
C1672       C  0.31668079  0.74754234  0.47779682    -0.19000
C1673       C  0.30118181  0.71031911  0.48015815    -0.28400
C1674       C  0.26847004  0.69263669  0.48701320     0.44500
C1675       C  0.24536335  0.76830920  0.49094793     0.05700
O1676       O  0.31415639  0.80230472  0.47809016    -0.56900
H1677       H  0.34161805  0.76147864  0.47240454     0.18700
O1678       O  0.25208834  0.65614581  0.48921949    -0.63600
H1679       H  0.22500998  0.69740225  0.49557946     0.17100
C1680       C  0.20890387  0.75516003  0.48744030     0.29400
C1681       C  0.19057994  0.77346147  0.49133295    -0.24500
C1682       C  0.20815147  0.80503372  0.49869409    -0.23800
C1683       C  0.24516287  0.81938922  0.50146869     0.40800
C1684       C  0.26324975  0.80096334  0.49773883    -0.26300
O1685       O  0.19065897  0.72400739  0.48046543    -0.58100
H1686       H  0.16210553  0.76187891  0.48921256     0.16400
O1687       O  0.26327589  0.85015289  0.50866890    -0.59600
H1688       H  0.29115980  0.81167789  0.50055352     0.14900
H1689       H  0.26426105  0.65358871  0.49685261     0.46700
H1690       H  0.19713956  0.73159880  0.47147992     0.42100
H1691       H  0.26787475  0.87034165  0.50286928     0.45600
H1692       H  0.30396003  0.80236750  0.46962606     0.37100
C1693       C  0.38339631  0.96618982  0.87259505    -0.27200
C1694       C  0.36695474  0.92886001  0.87464744     0.02400
C1695       C  0.37946476  0.90840138  0.86809449     0.30500
C1696       C  0.40895259  0.92566324  0.85983725    -0.19000
C1697       C  0.42585890  0.96312689  0.85802032    -0.28400
C1698       C  0.41256340  0.98339233  0.86421369     0.44500
C1699       C  0.33664790  0.91177981  0.88364796     0.05700
O1700       O  0.36356965  0.87178413  0.86993094    -0.56900
H1701       H  0.41925164  0.91001793  0.85508508     0.18700
O1702       O  0.42858316  0.51997007  0.86241111    -0.63600
H1703       H  0.37353399  0.98198732  0.87750552     0.17100
C1704       C  0.34200058  0.92014003  0.89666722     0.29400
C1705       C  0.31243827  0.90595064  0.90495088    -0.24500
C1706       C  0.27717773  0.88379999  0.90036488    -0.23800
C1707       C  0.27217139  0.87466854  0.88728445     0.40800
C1708       C  0.30185327  0.88872084  0.87906336    -0.26300
O1709       O  0.37611695  0.94189780  0.90136875    -0.58100
H1710       H  0.31715041  0.91299127  0.91493862     0.16400
O1711       O  0.23843378  0.85263906  0.88233904    -0.59600
H1712       H  0.29762251  0.88228191  0.86901441     0.14900
H1713       H  0.40931949  0.52438875  0.85912118     0.46700
H1714       H  0.37874701  0.96631588  0.90201886     0.42100
H1715       H  0.23495001  0.82784667  0.88278399     0.45600
H1716       H  0.37661553  0.86883140  0.87721866     0.37100
C1717       C  0.06352411  0.90936657  0.89813108    -0.27200
C1718       C  0.06849626  0.90935754  0.88494586     0.02400
C1719       C  0.09027982  0.89601983  0.88002976     0.30500
C1720       C  0.10706404  0.88320802  0.88830072    -0.19000
C1721       C  0.10247889  0.88337169  0.90157170    -0.28400
C1722       C  0.08026104  0.89655791  0.90643756     0.44500
C1723       C  0.05335119  0.92611815  0.87648323     0.05700
O1724       O  0.09705805  0.89747019  0.86720970    -0.56900
H1725       H  0.12420969  0.87364506  0.88426522     0.18700
O1726       O  0.07434556  0.89678661  0.91925667    -0.63600
H1727       H  0.04686445  0.91973987  0.90200530     0.17100
C1728       C  0.02925813  0.90651291  0.86659828     0.29400
C1729       C  0.01719222  0.92395560  0.85831284    -0.24500
C1730       C  0.02874663  0.96083602  0.85982348    -0.23800
C1731       C  0.05189732  0.98007150  0.86996244     0.40800
C1732       C  0.06416909  0.96272361  0.87815177    -0.26300
O1733       O  0.01715272  0.87032089  0.86504059    -0.58100
H1734       H  0.99829927  0.90854009  0.85084627     0.16400
O1735       O  0.06403579  0.01627009  0.87157304    -0.59600
H1736       H  0.08275718  0.97809192  0.88570865     0.14900
H1737       H  0.09238853  0.92139464  0.92216550     0.46700
H1738       H  0.99587827  0.85791571  0.87074734     0.42100
H1739       H  0.05138143  0.01799878  0.87924514     0.45600
H1740       H  0.08282699  0.87216388  0.86417032     0.37100
C1741       C  0.10057169  0.69048835  0.88158263    -0.27200
C1742       C  0.08693051  0.65603659  0.88686893     0.02400
C1743       C  0.08847163  0.65240779  0.90012483     0.30500
C1744       C  0.10248872  0.68316575  0.90794031    -0.19000
C1745       C  0.11512108  0.71779250  0.90269567    -0.28400
C1746       C  0.11468573  0.72116172  0.88930005     0.44500
C1747       C  0.06972778  0.62428480  0.87835445     0.05700
O1748       O  0.07745078  0.61908246  0.90542618    -0.56900
H1749       H  0.10330851  0.67979723  0.91812286     0.18700
O1750       O  0.12711743  0.75417742  0.88357650    -0.63600
H1751       H  0.09957542  0.69358392  0.87138234     0.17100
C1752       C  0.03297851  0.59841075  0.87976040     0.29400
C1753       C  0.01634137  0.57027918  0.87096790    -0.24500
C1754       C  0.03562646  0.56758350  0.86061340    -0.23800
C1755       C  0.07274050  0.59291734  0.85940927     0.40800
C1756       C  0.08938835  0.62131196  0.86814390    -0.26300
O1757       O  0.01266251  0.60162865  0.88928078    -0.58100
H1758       H  0.48840945  0.55042051  0.87238132     0.16400
O1759       O  0.09319359  0.58967206  0.84996833    -0.59600
H1760       H  0.11777978  0.64099753  0.86699701     0.14900
H1761       H  0.15250942  0.76215011  0.88117969     0.46700
H1762       H  0.00581665  0.58065569  0.89498067     0.42100
H1763       H  0.10189249  0.57387640  0.85356997     0.45600
H1764       H  0.05611778  0.61372609  0.91075030     0.37100
C1765       C  0.27483001  0.91072968  0.76897485    -0.27200
C1766       C  0.29382345  0.89208615  0.76721590     0.02400
C1767       C  0.28416943  0.86060576  0.77435561     0.30500
C1768       C  0.25490689  0.84754534  0.78281825    -0.19000
C1769       C  0.23555802  0.86597671  0.78438359    -0.28400
C1770       C  0.24626238  0.89828593  0.77766754     0.44500
C1771       C  0.32481908  0.90715194  0.75836902     0.05700
O1772       O  0.30300523  0.84240676  0.77305483    -0.56900
H1773       H  0.24703301  0.82284062  0.78806788     0.18700
O1774       O  0.22900679  0.91784236  0.77961648    -0.63600
H1775       H  0.28274483  0.93554622  0.76379183     0.17100
C1776       C  0.32037856  0.91211129  0.74540407     0.29400
C1777       C  0.35059744  0.92898489  0.73739224    -0.24500
C1778       C  0.38563252  0.94178874  0.74219964    -0.23800
C1779       C  0.38978394  0.93667741  0.75527857     0.40800
C1780       C  0.35950342  0.91922842  0.76316683    -0.26300
O1781       O  0.28650365  0.89983675  0.74045254    -0.58100
H1782       H  0.34653212  0.93229699  0.72742546     0.16400
O1783       O  0.42322483  0.94822359  0.76049968    -0.59600
H1784       H  0.36320742  0.91593794  0.77317643     0.14900
H1785       H  0.24811628  0.94301299  0.78147276     0.46700
H1786       H  0.28380257  0.92157283  0.73966537     0.42100
H1787       H  0.43043945  0.97229070  0.76420848     0.45600
H1788       H  0.28977957  0.82373757  0.76648360     0.37100
C1789       C  0.07394111  0.86660942  0.77780660    -0.27200
C1790       C  0.09264827  0.88748066  0.76720210     0.02400
C1791       C  0.12786715  0.89455728  0.76465977     0.30500
C1792       C  0.14432035  0.88141171  0.77284159    -0.19000
C1793       C  0.12652043  0.86184749  0.78378694    -0.28400
C1794       C  0.09035025  0.85304382  0.78592711     0.44500
C1795       C  0.07552393  0.90211523  0.75880674     0.05700
O1796       O  0.14679461  0.91531860  0.75441301    -0.56900
H1797       H  0.17097741  0.88640627  0.77048394     0.18700
O1798       O  0.07039463  0.83024858  0.79560190    -0.63600
H1799       H  0.04639215  0.86032399  0.77963481     0.17100
C1800       C  0.06625944  0.88972192  0.74623511     0.29400
C1801       C  0.05249820  0.90593767  0.73811850    -0.24500
C1802       C  0.04768425  0.93452158  0.74242428    -0.23800
C1803       C  0.05671680  0.94651036  0.75515628     0.40800
C1804       C  0.07043107  0.93021076  0.76321246    -0.26300
O1805       O  0.07112205  0.86217130  0.74175558    -0.58100
H1806       H  0.04561730  0.89612276  0.72844724     0.16400
O1807       O  0.05357798  0.47509613  0.75972985    -0.59600
H1808       H  0.07802034  0.94017033  0.77284876     0.14900
H1809       H  0.06325991  0.80559001  0.79251397     0.46700
H1810       H  0.04968676  0.83963662  0.74474217     0.42100
H1811       H  0.03027562  0.46407907  0.76440413     0.45600
H1812       H  0.14578951  0.89793737  0.74791997     0.37100
C1813       C  0.13054087  0.70786189  0.77670075    -0.27200
C1814       C  0.10152715  0.70118530  0.76870762     0.02400
C1815       C  0.08631955  0.72391879  0.76937255     0.30500
C1816       C  0.10101521  0.75354036  0.77765236    -0.19000
C1817       C  0.13038475  0.76045942  0.78543276    -0.28400
C1818       C  0.14493425  0.73725956  0.78507269     0.44500
C1819       C  0.08740930  0.67029960  0.75978616     0.05700
O1820       O  0.05636685  0.71654927  0.76231440    -0.56900
H1821       H  0.08951575  0.77122040  0.77800117     0.18700
O1822       O  0.17448334  0.74441003  0.79232134    -0.63600
H1823       H  0.14253282  0.69062955  0.77626345     0.17100
C1824       C  0.08507057  0.67511761  0.74663949     0.29400
C1825       C  0.07109986  0.64532992  0.73846227    -0.24500
C1826       C  0.05975752  0.61045438  0.74316261    -0.23800
C1827       C  0.06347435  0.60593673  0.75629161     0.40800
C1828       C  0.07717085  0.63572553  0.76445316    -0.26300
O1829       O  0.09672416  0.70887768  0.74165865    -0.58100
H1830       H  0.06891709  0.64958284  0.72842043     0.16400
O1831       O  0.05480973  0.57277345  0.76121909    -0.59600
H1832       H  0.07953519  0.63174631  0.77451105     0.14900
H1833       H  0.16589902  0.72408769  0.79844389     0.46700
H1834       H  0.12272421  0.71858971  0.73975446     0.42100
H1835       H  0.03046348  0.56329955  0.76504664     0.45600
H1836       H  0.06445790  0.73687987  0.75621149     0.37100
C1837       C  0.08614643  0.87616921  0.82494309    -0.27200
C1838       C  0.09698632  0.91118135  0.82034747     0.02400
C1839       C  0.12756093  0.92802318  0.81235462     0.30500
C1840       C  0.14530658  0.90934443  0.80851019    -0.19000
C1841       C  0.13297567  0.87350885  0.81237355    -0.28400
C1842       C  0.10416664  0.85750426  0.82111959     0.44500
C1843       C  0.07646236  0.93005071  0.82383969     0.05700
O1844       O  0.13937390  0.96221467  0.80775784    -0.56900
H1845       H  0.16766273  0.92221608  0.80186991     0.18700
O1846       O  0.09142191  0.82259401  0.82509338    -0.63600
H1847       H  0.06323193  0.86301789  0.83133192     0.17100
C1848       C  0.03906623  0.91444327  0.82141444     0.29400
C1849       C  0.02029576  0.93243507  0.82515339    -0.24500
C1850       C  0.03828964  0.96590217  0.83142614    -0.23800
C1851       C  0.07585822  0.98215431  0.83333588     0.40800
C1852       C  0.09460731  0.96437341  0.82953712    -0.26300
O1853       O  0.02077331  0.88185564  0.81524767    -0.58100
H1854       H  0.99134754  0.91939100  0.82373150     0.16400
O1855       O  0.09429754  0.51527043  0.83916298    -0.59600
H1856       H  0.12333718  0.97705075  0.83139354     0.14900
H1857       H  0.10503336  0.82463627  0.83297745     0.46700
H1858       H  0.00752820  0.86382472  0.82201312     0.42100
H1859       H  0.10024339  0.51036130  0.84778031     0.45600
H1860       H  0.12586029  0.95873548  0.79972870     0.37100
C1861       C  0.29775332  0.92655603  0.81364908    -0.27200
C1862       C  0.31306889  0.90783933  0.81966624     0.02400
C1863       C  0.28986738  0.87120922  0.82304346     0.30500
C1864       C  0.25336534  0.85336589  0.81920882    -0.19000
C1865       C  0.23900291  0.87194929  0.81263161    -0.28400
C1866       C  0.26100980  0.90930230  0.81063771     0.44500
C1867       C  0.35268197  0.92773623  0.82278020     0.05700
O1868       O  0.30217637  0.85315752  0.83050557    -0.56900
H1869       H  0.23670113  0.82478442  0.82104063     0.18700
O1870       O  0.24703971  0.92903235  0.80529551    -0.63600
H1871       H  0.31437003  0.95477786  0.81111736     0.17100
C1872       C  0.37531332  0.91243542  0.82103859     0.29400
C1873       C  0.41170491  0.93147505  0.82490462    -0.24500
C1874       C  0.42666153  0.96651661  0.82990318    -0.23800
C1875       C  0.40518816  0.98303171  0.83042479     0.40800
C1876       C  0.36855426  0.96353254  0.82723677    -0.26300
O1877       O  0.36229704  0.87887286  0.81570531    -0.58100
H1878       H  0.42785761  0.91830583  0.82447673     0.16400
O1879       O  0.41936511  0.01773972  0.83478100    -0.59600
H1880       H  0.35235599  0.97640716  0.82858751     0.14900
H1881       H  0.23512935  0.93447159  0.81239704     0.46700
H1882       H  0.36108672  0.88252758  0.80644187     0.42100
H1883       H  0.42334243  0.53261112  0.82724925     0.45600
H1884       H  0.29872687  0.83201978  0.82543695     0.37100
C1885       C  0.12334590  0.70841841  0.82434330    -0.27200
C1886       C  0.08681178  0.68647009  0.82100659     0.02400
C1887       C  0.06898680  0.70243140  0.81476482     0.30500
C1888       C  0.08815090  0.73895495  0.81125987    -0.19000
C1889       C  0.12532092  0.76016190  0.81372399    -0.28400
C1890       C  0.14250171  0.74507697  0.82082305     0.44500
C1891       C  0.06732576  0.64719141  0.82420960     0.05700
O1892       O  0.03323873  0.68212854  0.81149654    -0.56900
H1893       H  0.07449525  0.75017529  0.80579929     0.18700
O1894       O  0.17862910  0.76501228  0.82346599    -0.63600
H1895       H  0.13726596  0.69690784  0.82946698     0.17100
C1896       C  0.07995516  0.62378766  0.82014141     0.29400
C1897       C  0.06196019  0.58725793  0.82396645    -0.24500
C1898       C  0.03174683  0.57387420  0.83203352    -0.23800
C1899       C  0.01780864  0.59670988  0.83535431     0.40800
C1900       C  0.03577956  0.63302055  0.83157219    -0.26300
O1901       O  0.10974293  0.63638269  0.81239945    -0.58100
H1902       H  0.07288728  0.57002489  0.82127476     0.16400
O1903       O  0.98782754  0.58420551  0.84301409    -0.59600
H1904       H  0.02555722  0.65047518  0.83474679     0.14900
H1905       H  0.17989924  0.77489334  0.83211627     0.46700
H1906       H  0.12981202  0.63989442  0.81805908     0.42100
H1907       H  0.46973248  0.58733195  0.83809443     0.45600
H1908       H  0.03329397  0.67416083  0.80263180     0.37100
C1909       C  0.41984613  0.79390321  0.20113928    -0.27200
C1910       C  0.39782907  0.79714561  0.21040650     0.02400
C1911       C  0.36103566  0.77048381  0.21117766     0.30500
C1912       C  0.34668864  0.74171536  0.20261178    -0.19000
C1913       C  0.36867930  0.73865408  0.19336648    -0.28400
C1914       C  0.40563610  0.76449613  0.19276865     0.44500
C1915       C  0.41338177  0.82815240  0.21929701     0.05700
O1916       O  0.33903552  0.77188222  0.22043802    -0.56900
H1917       H  0.31834611  0.72139228  0.20328627     0.18700
O1918       O  0.42827952  0.75972909  0.18467057    -0.63600
H1919       H  0.44819478  0.81405824  0.20042836     0.17100
C1920       C  0.44533096  0.83766465  0.22606838     0.29400
C1921       C  0.45912157  0.86683951  0.23451407    -0.24500
C1922       C  0.44151577  0.88699266  0.23640509    -0.23800
C1923       C  0.40924850  0.87709054  0.22969210     0.40800
C1924       C  0.39582372  0.84827569  0.22111330    -0.26300
O1925       O  0.46242905  0.81769503  0.22489432    -0.58100
H1926       H  0.48369533  0.87354568  0.23963334     0.16400
O1927       O  0.39106750  0.89591041  0.23112507    -0.59600
H1928       H  0.37155604  0.84170091  0.21580808     0.14900
H1929       H  0.44102830  0.78225834  0.17959013     0.46700
H1930       H  0.48508143  0.83333504  0.22015299     0.42100
H1931       H  0.37143003  0.88164693  0.23729534     0.45600
H1932       H  0.34187613  0.75914109  0.22785269     0.37100
C1933       C  0.37513208  0.58334376  0.20120286    -0.27200
C1934       C  0.40129808  0.60520425  0.21015796     0.02400
C1935       C  0.41286698  0.64244171  0.21067495     0.30500
C1936       C  0.39817220  0.65724036  0.20234461    -0.19000
C1937       C  0.37220677  0.63539155  0.19336816    -0.28400
C1938       C  0.36039886  0.59816342  0.19289472     0.44500
C1939       C  0.41634188  0.58894179  0.21892660     0.05700
O1940       O  0.43821879  0.66448763  0.21937411    -0.56900
H1941       H  0.40704689  0.68586564  0.20287111     0.18700
O1942       O  0.33410495  0.57598765  0.18449628    -0.63600
H1943       H  0.36606401  0.55468900  0.20068085     0.17100
C1944       C  0.39365162  0.55979989  0.22687633     0.29400
C1945       C  0.40849984  0.54462194  0.23499961    -0.24500
C1946       C  0.44607554  0.55841776  0.23547560    -0.23800
C1947       C  0.46870015  0.58767826  0.22746068     0.40800
C1948       C  0.45375991  0.60265172  0.21931726    -0.26300
O1949       O  0.35696082  0.54622489  0.22687868    -0.58100
H1950       H  0.39052971  0.52227179  0.24105656     0.16400
O1951       O  0.50545391  0.60172903  0.22737301    -0.59600
H1952       H  0.47147671  0.62484237  0.21315090     0.14900
H1953       H  0.31091230  0.56793917  0.18902291     0.46700
H1954       H  0.35278380  0.56181990  0.23285582     0.42100
H1955       H  0.50991739  0.58713917  0.22102447     0.45600
H1956       H  0.42447955  0.66177425  0.22731228     0.37100
C1957       C  0.15649415  0.54514758  0.22186720    -0.27200
C1958       C  0.17720943  0.58277472  0.22026501     0.02400
C1959       C  0.16779873  0.60523060  0.22721873     0.30500
C1960       C  0.13723134  0.59004927  0.23503914    -0.19000
C1961       C  0.11595661  0.55238043  0.23646217    -0.28400
C1962       C  0.12652778  0.52992699  0.23003814     0.44500
C1963       C  0.20770252  0.59844492  0.21102917     0.05700
O1964       O  0.18826809  0.64217788  0.22642989    -0.56900
H1965       H  0.13031708  0.60800999  0.24006815     0.18700
O1966       O  0.10708190  0.49302527  0.23125536    -0.63600
H1967       H  0.16302651  0.52734106  0.21655378     0.17100
C1968       C  0.23454922  0.58827273  0.21098086     0.29400
C1969       C  0.26349128  0.60453037  0.20240889    -0.24500
C1970       C  0.26593915  0.63056704  0.19370463    -0.23800
C1971       C  0.23932693  0.64086840  0.19372974     0.40800
C1972       C  0.21028381  0.62451461  0.20225597    -0.26300
O1973       O  0.23381363  0.56402261  0.21972459    -0.58100
H1974       H  0.28434615  0.59704605  0.20264446     0.16400
O1975       O  0.24299742  0.66867466  0.18611538    -0.59600
H1976       H  0.18987076  0.63260455  0.20209671     0.14900
H1977       H  0.11948476  0.48716617  0.23804258     0.46700
H1978       H  0.22772160  0.54182388  0.21481123     0.42100
H1979       H  0.22028102  0.65890738  0.18116023     0.45600
H1980       H  0.20854128  0.64896974  0.23243578     0.37100
C1981       C  0.07604435  0.89164941  0.33299129    -0.27200
C1982       C  0.10294125  0.92144763  0.32638407     0.02400
C1983       C  0.13844940  0.93936063  0.33105618     0.30500
C1984       C  0.14698132  0.92661202  0.34198322    -0.19000
C1985       C  0.12045465  0.89579697  0.34840757    -0.28400
C1986       C  0.08448550  0.87870069  0.34392106     0.44500
C1987       C  0.09310843  0.93490237  0.31505664     0.05700
O1988       O  0.16511153  0.96904612  0.32489338    -0.56900
H1989       H  0.17481241  0.94030365  0.34515893     0.18700
O1990       O  0.05732612  0.84953785  0.35014639    -0.63600
H1991       H  0.04834286  0.87842434  0.32967055     0.17100
C1992       C  0.07792968  0.91295078  0.30425927     0.29400
C1993       C  0.06541627  0.92523686  0.29417897    -0.24500
C1994       C  0.06714336  0.95894353  0.29494196    -0.23800
C1995       C  0.08402965  0.98151286  0.30552481     0.40800
C1996       C  0.09705259  0.96947383  0.31541990    -0.26300
O1997       O  0.07519416  0.87952216  0.30352938    -0.58100
H1998       H  0.05267726  0.90765412  0.28610285     0.16400
O1999       O  0.08775871  0.01537759  0.30631286    -0.59600
H2000       H  0.10895542  0.98665040  0.32365672     0.14900
H2001       H  0.05342385  0.82808146  0.34518001     0.46700
H2002       H  0.04969257  0.86203044  0.30568839     0.42100
H2003       H  0.56874782  0.01294660  0.31237600     0.45600
H2004       H  0.17488896  0.95919759  0.31842481     0.37100
C2005       C  0.06927203  0.70777386  0.32812798    -0.27200
C2006       C  0.08806873  0.69048008  0.32391631     0.02400
C2007       C  0.11812025  0.69481159  0.33088614     0.30500
C2008       C  0.12890943  0.71616301  0.34188637    -0.19000
C2009       C  0.10986043  0.73324364  0.34624641    -0.28400
C2010       C  0.07955523  0.72859617  0.33921988     0.44500
C2011       C  0.07428236  0.66568428  0.31286271     0.05700
O2012       O  0.13688829  0.67794006  0.32711755    -0.56900
H2013       H  0.15241057  0.71942485  0.34697757     0.18700
O2014       O  0.06029906  0.74509050  0.34283235    -0.63600
H2015       H  0.04625802  0.70493469  0.32280923     0.17100
C2016       C  0.03847183  0.63681385  0.31288779     0.29400
C2017       C  0.02642981  0.61147812  0.30307837    -0.24500
C2018       C  0.04946911  0.61434661  0.29304713    -0.23800
C2019       C  0.08492978  0.64392000  0.29270730     0.40800
C2020       C  0.09710703  0.66948281  0.30258121    -0.26300
O2021       O  0.01586897  0.63157294  0.32296993    -0.58100
H2022       H  0.99917883  0.58867036  0.30355452     0.16400
O2023       O  0.10840317  0.64696136  0.28320821    -0.59600
H2024       H  0.12469038  0.69170446  0.30240585     0.14900
H2025       H  0.03979989  0.72673959  0.34794195     0.46700
H2026       H  0.99841821  0.63875875  0.31982637     0.42100
H2027       H  0.12141911  0.63482283  0.28654526     0.45600
H2028       H  0.12464231  0.65402370  0.33138219     0.37100
C2029       C  0.30769399  0.86820275  0.33309220    -0.27200
C2030       C  0.32210585  0.90311198  0.32808585     0.02400
C2031       C  0.31390182  0.92788518  0.33392506     0.30500
C2032       C  0.29040153  0.91714541  0.34435000    -0.19000
C2033       C  0.27470051  0.88167517  0.34914600    -0.28400
C2034       C  0.28404868  0.85726612  0.34347206     0.44500
C2035       C  0.34596304  0.91352517  0.31682831     0.05700
O2036       O  0.32842425  0.96255947  0.32942150    -0.56900
H2037       H  0.28382789  0.93649055  0.34847723     0.18700
O2038       O  0.26982739  0.82244115  0.34779291    -0.63600
H2039       H  0.31406186  0.84899033  0.32871221     0.17100
C2040       C  0.37853445  0.91286145  0.31729956     0.29400
C2041       C  0.40197927  0.92503822  0.30690432    -0.24500
C2042       C  0.39346522  0.93785610  0.29585391    -0.23800
C2043       C  0.35996319  0.93679483  0.29513104     0.40800
C2044       C  0.33648416  0.92475473  0.30562351    -0.26300
O2045       O  0.38876221  0.90263678  0.32819279    -0.58100
H2046       H  0.42756544  0.92550057  0.30766210     0.16400
O2047       O  0.35059003  0.94884618  0.28449640    -0.59600
H2048       H  0.31113657  0.92484355  0.30512199     0.14900
H2049       H  0.24885716  0.80769897  0.34219347     0.46700
H2050       H  0.38415181  0.87779266  0.32650532     0.42100
H2051       H  0.35920093  0.47489534  0.28612504     0.45600
H2052       H  0.35238648  0.97620988  0.33357040     0.37100
C2053       C  0.29617434  0.54680243  0.44201416    -0.27200
C2054       C  0.26666469  0.54014457  0.43429858     0.02400
C2055       C  0.25136798  0.56271645  0.43530382     0.30500
C2056       C  0.26611059  0.59193276  0.44377969    -0.19000
C2057       C  0.29570719  0.59861785  0.45140926    -0.28400
C2058       C  0.31083869  0.57595686  0.45048232     0.44500
C2059       C  0.25162785  0.50895459  0.42549875     0.05700
O2060       O  0.22119506  0.55548939  0.42842515    -0.56900
H2061       H  0.25435397  0.60933434  0.44445213     0.18700
O2062       O  0.34016861  0.58234094  0.45770777    -0.63600
H2063       H  0.30811258  0.52955527  0.44134328     0.17100
C2064       C  0.25160990  0.01369954  0.41226621     0.29400
C2065       C  0.23742436  0.98356424  0.40418966    -0.24500
C2066       C  0.22338949  0.94842423  0.40913761    -0.23800
C2067       C  0.22430265  0.94408610  0.42245822     0.40800
C2068       C  0.23826620  0.97419804  0.43047550    -0.26300
O2069       O  0.26561940  0.04760937  0.40710828    -0.58100
H2070       H  0.23734650  0.98776943  0.39403252     0.16400
O2071       O  0.21162536  0.91057703  0.42781805    -0.59600
H2072       H  0.23846366  0.47025912  0.44063549     0.14900
H2073       H  0.36156287  0.59866671  0.45251405     0.46700
H2074       H  0.29196904  0.05681256  0.40636394     0.42100
H2075       H  0.23283705  0.90690489  0.42819211     0.45600
H2076       H  0.22981090  0.57424259  0.42168876     0.37100
C2077       C  0.02452462  0.75787691  0.42937653    -0.27200
C2078       C  0.49044306  0.74830790  0.42448618     0.02400
C2079       C  0.98681751  0.75399619  0.41154396     0.30500
C2080       C  0.01729107  0.76901608  0.40360134    -0.19000
C2081       C  0.05164312  0.77852901  0.40843167    -0.28400
C2082       C  0.05497133  0.77281505  0.42150422     0.44500
C2083       C  0.45904290  0.73268777  0.43312147     0.05700
O2084       O  0.95384875  0.74625933  0.40672475    -0.56900
H2085       H  0.01401266  0.77356096  0.39367776     0.18700
O2086       O  0.08764069  0.78083411  0.42667520    -0.63600
H2087       H  0.52741174  0.75322438  0.43932607     0.17100
C2088       C  0.43169495  0.69642529  0.43190047     0.29400
C2089       C  0.40303851  0.68169611  0.44058371    -0.24500
C2090       C  0.40114366  0.70283639  0.45046311    -0.23800
C2091       C  0.42796800  0.73951634  0.45141570     0.40800
C2092       C  0.45707390  0.75398807  0.44292476    -0.26300
O2093       O  0.43360075  0.67489987  0.42256385    -0.58100
H2094       H  0.38228619  0.65362304  0.43962540     0.16400
O2095       O  0.42574241  0.76158208  0.46044551    -0.59600
H2096       H  0.47793438  0.78205062  0.44386160     0.14900
H2097       H  0.09698419  0.80494508  0.43067230     0.46700
H2098       H  0.41485313  0.67148555  0.41627706     0.42100
H2099       H  0.40816056  0.76825196  0.45704196     0.45600
H2100       H  0.44614536  0.72482233  0.40121973     0.37100
C2101       C  0.24880619  0.71147050  0.44368082    -0.27200
C2102       C  0.27135853  0.73657891  0.43455816     0.02400
C2103       C  0.30813567  0.74669907  0.43404078     0.30500
C2104       C  0.32193760  0.73157137  0.44261289    -0.19000
C2105       C  0.29931114  0.70614498  0.45164832    -0.28400
C2106       C  0.26243154  0.69576804  0.45206865     0.44500
C2107       C  0.25597968  0.75196011  0.42565714     0.05700
O2108       O  0.33082358  0.77192719  0.42540002    -0.56900
H2109       H  0.35032209  0.73947218  0.44215270     0.18700
O2110       O  0.23934161  0.66959363  0.46035295    -0.63600
H2111       H  0.22037337  0.70339398  0.44406917     0.17100
C2112       C  0.25149171  0.74250174  0.41270987     0.29400
C2113       C  0.23525918  0.75625688  0.40457164    -0.24500
C2114       C  0.22313800  0.77940677  0.40921031    -0.23800
C2115       C  0.22837332  0.78921518  0.42224008     0.40800
C2116       C  0.24434428  0.77520222  0.43032311    -0.26300
O2117       O  0.26241133  0.71943056  0.40797819    -0.58100
H2118       H  0.23179465  0.74840198  0.39464752     0.16400
O2119       O  0.21784671  0.81229074  0.42726466    -0.59600
H2120       H  0.24775366  0.78257553  0.44030296     0.14900
H2121       H  0.22976121  0.64652024  0.45560869     0.46700
H2122       H  0.24120927  0.69487570  0.40898430     0.42100
H2123       H  0.23930482  0.83677176  0.42645894     0.45600
H2124       H  0.33393704  0.75782973  0.41848879     0.37100
Zn2125     Zn  0.68784895  0.30646197  0.37387441     1.49700
Zn2126     Zn  0.66540983  0.33508005  0.39810328     1.49400
Zn2127     Zn  0.69451370  0.38506698  0.37393674     1.49100
Zn2128     Zn  0.61638095  0.31327701  0.37356894     1.49500
O2129       O  0.66605995  0.33498508  0.37977517    -1.83700
O2130       O  0.70512404  0.28787813  0.38851546    -0.74300
O2131       O  0.68978503  0.38516331  0.40515115    -0.74200
O2132       O  0.73610528  0.39159093  0.36299088    -0.73700
O2133       O  0.69137882  0.31095244  0.40509648    -0.74400
O2134       O  0.73048322  0.33702048  0.36282628    -0.74000
O2135       O  0.71259296  0.42127495  0.38846790    -0.74500
O2136       O  0.60973410  0.34851574  0.36291668    -0.73900
O2137       O  0.61503077  0.30941484  0.40481017    -0.74700
O2138       O  0.66461676  0.39661521  0.36231894    -0.74100
O2139       O  0.57953920  0.29425692  0.38788695    -0.74500
O2140       O  0.60645286  0.27358374  0.36119373    -0.74500
O2141       O  0.65458726  0.26658305  0.36195431    -0.74200
C2142       C  0.70554982  0.29331867  0.40046589     0.77500
C2143       C  0.70784804  0.41669424  0.40044933     0.78000
C2144       C  0.74609775  0.36964516  0.35903263     0.77000
C2145       C  0.63187912  0.37979112  0.35865301     0.77400
C2146       C  0.58368439  0.29481334  0.39991105     0.78500
C2147       C  0.62399418  0.25852978  0.35722383     0.77600
Zn2148     Zn  0.94987079  0.47648739  0.25930800     1.49700
Zn2149     Zn  0.52760661  0.05052297  0.25819860     1.49400
Zn2150     Zn  0.00187927  0.50315349  0.28250291     1.49100
Zn2151     Zn  0.52457528  0.47358824  0.25915434     1.49500
O2152       O  0.00085304  0.50085119  0.26443694    -1.83700
O2153       O  0.94036741  0.01043017  0.24870216    -0.74300
O2154       O  0.54519302  0.08801419  0.27248251    -0.74200
O2155       O  0.95438906  0.47171052  0.29008671    -0.73700
O2156       O  0.99471399  0.05937463  0.24690005    -0.74400
O2157       O  0.91478973  0.45692056  0.27445178    -0.74000
O2158       O  0.51869358  0.05215221  0.28900408    -0.74500
O2159       O  0.54415898  0.45827456  0.27412145    -0.73900
O2160       O  0.57074603  0.05804079  0.24790980    -0.74700
O2161       O  0.53430834  0.48766606  0.28959718    -0.74100
O2162       O  0.56747417  0.00439071  0.24795455    -0.74500
O2163       O  0.99006405  0.43036302  0.24892961    -0.74500
O2164       O  0.93987626  0.43406860  0.24818485    -0.74200
C2165       C  0.96116620  0.04189465  0.24417615     0.77500
C2166       C  0.53721105  0.08348110  0.28427473     0.78000
C2167       C  0.92204988  0.45616904  0.28617360     0.77000
C2168       C  0.54787563  0.46892128  0.28563025     0.77400
C2169       C  0.58298572  0.03739737  0.24452594     0.78500
C2170       C  0.95786208  0.41869574  0.24501960     0.77600
C2171       C  0.66591703  0.33317679  0.81185451     0.45900
H2172       H  0.66627345  0.33446201  0.82240497    -0.03200
C2173       C  0.66528504  0.33046841  0.78701941     0.45900
H2174       H  0.66509496  0.32893614  0.77646130    -0.03200
C2175       C  0.64650918  0.35182368  0.80548216    -0.16800
C2176       C  0.70407931  0.35194671  0.80567445    -0.16600
C2177       C  0.64656152  0.29418046  0.80633402    -0.17000
C2178       C  0.64550415  0.34916422  0.79239659    -0.17000
C2179       C  0.70316981  0.35046201  0.79264243    -0.16500
C2180       C  0.64707363  0.29349382  0.79329090    -0.16800
C2181       C  0.99963798  0.00087209  0.83213163     0.45900
H2182       H  0.00114714  0.00216988  0.82158474    -0.03200
C2183       C  0.99593140  0.99801128  0.85693782     0.45900
H2184       H  0.99385486  0.99631644  0.86747984    -0.03200
C2185       C  0.51827852  0.03856488  0.83871189    -0.16800
C2186       C  0.96052088  0.48192740  0.83746049    -0.16600
C2187       C  0.51735394  0.48020530  0.83829829    -0.17000
C2188       C  0.51721191  0.03646583  0.85178327    -0.17000
C2189       C  0.95926320  0.48107014  0.85046123    -0.16500
C2190       C  0.51470848  0.47873930  0.85134195    -0.16800
C2191       C  0.66645138  0.33679984  0.50003689     0.45900
H2192       H  0.66728410  0.33807945  0.48948637    -0.03200
C2193       C  0.66448914  0.33367579  0.52486080     0.45900
H2194       H  0.66354191  0.33235668  0.53542518    -0.03200
C2195       C  0.68677246  0.31830951  0.50586954    -0.16800
C2196       C  0.68349388  0.37441525  0.50663320    -0.16600
C2197       C  0.62761885  0.31546292  0.50569036    -0.17000
C2198       C  0.68497050  0.31655368  0.51891690    -0.17000
C2199       C  0.68267251  0.37211163  0.51968206    -0.16500
C2200       C  0.62727911  0.31431417  0.51874314    -0.16800
C2201       C  0.83161651  0.16847684  0.45384560     0.45900
H2202       H  0.83073256  0.16821555  0.44327100    -0.03200
C2203       C  0.83334436  0.16891623  0.47867591     0.45900
H2204       H  0.83400543  0.16905832  0.48923299    -0.03200
C2205       C  0.81432376  0.18866476  0.45983358    -0.16800
C2206       C  0.81216830  0.13091773  0.45967530    -0.16600
C2207       C  0.86972598  0.18646144  0.45920479    -0.17000
C2208       C  0.81505269  0.18951248  0.47289399    -0.17000
C2209       C  0.81233918  0.13038531  0.47273219    -0.16500
C2210       C  0.87142768  0.18657137  0.47228361    -0.16800
Zn2211     Zn  0.83180059  0.16638031  0.58008212     1.49700
Zn2212     Zn  0.80283717  0.18812966  0.60405750     1.49400
Zn2213     Zn  0.81411710  0.11897734  0.60501251     1.49100
Zn2214     Zn  0.88267329  0.19825704  0.60388182     1.49500
O2215       O  0.83281017  0.16794875  0.59839051    -1.83700
O2216       O  0.80577024  0.18995585  0.57265517    -0.74300
O2217       O  0.76358497  0.15379883  0.61586738    -0.74200
O2218       O  0.79402803  0.08111875  0.59106799    -0.73700
O2219       O  0.78141422  0.20164398  0.58932706    -0.74400
O2220       O  0.80628701  0.11594963  0.57407138    -0.74000
O2221       O  0.77451919  0.10810463  0.61749088    -0.74500
O2222       O  0.89703450  0.17133459  0.61602890    -0.73900
O2223       O  0.83260243  0.23261626  0.61450541    -0.74700
O2224       O  0.85189644  0.11472499  0.61515539    -0.74100
O2225       O  0.88842219  0.24130382  0.61354367    -0.74500
O2226       O  0.91746704  0.21411517  0.58914142    -0.74500
O2227       O  0.88109205  0.18964808  0.57264917    -0.74200
C2228       C  0.78608399  0.20172797  0.57734951     0.77500
C2229       C  0.75713628  0.12391694  0.62082625     0.78000
C2230       C  0.79271671  0.08484113  0.57908467     0.77000
C2231       C  0.88260952  0.13840100  0.61942288     0.77400
C2232       C  0.86586462  0.25041344  0.61753782     0.78500
C2233       C  0.91265882  0.20783623  0.57725888     0.77600
Zn2234     Zn  0.94997740  0.48040362  0.70725904     1.49700
Zn2235     Zn  0.51959813  0.46930181  0.70722845     1.49400
Zn2236     Zn  0.52932519  0.04919435  0.70767579     1.49100
Zn2237     Zn  0.49879479  0.99823564  0.73159911     1.49500
O2238       O  0.49945126  0.99922119  0.71329623    -1.83700
O2239       O  0.93790695  0.44009937  0.69500998    -0.74300
O2240       O  0.56414197  0.99938690  0.69678583    -0.74200
O2241       O  0.00169176  0.06324477  0.69570952    -0.73700
O2242       O  0.98479045  0.43087482  0.69530832    -0.74400
O2243       O  0.94544895  0.01749309  0.69681533    -0.74000
O2244       O  0.57163010  0.05473814  0.69755403    -0.74500
O2245       O  0.52502930  0.04746306  0.73905269    -0.73900
O2246       O  0.53300171  0.44664682  0.72169776    -0.74700
O2247       O  0.54747314  0.08409381  0.72245936    -0.74100
O2248       O  0.52177063  0.47133785  0.73837683    -0.74500
O2249       O  0.94884343  0.47376156  0.73834191    -0.74500
O2250       O  0.91308143  0.46114983  0.72163293    -0.74200
C2251       C  0.95399912  0.42361879  0.69099800     0.77500
C2252       C  0.58133855  0.03258208  0.69360702     0.78000
C2253       C  0.96869583  0.04813504  0.69233466     0.77000
C2254       C  0.54337596  0.07902933  0.73443388     0.77400
C2255       C  0.53335661  0.45157647  0.73367236     0.78500
C2256       C  0.91743342  0.46013223  0.73359575     0.77600
C2257       C  0.83541866  0.16891969  0.16603292     0.45900
H2258       H  0.83529483  0.16883620  0.15547257    -0.03200
C2259       C  0.83566547  0.16890842  0.19087951     0.45900
H2260       H  0.83582943  0.16894205  0.20145958    -0.03200
C2261       C  0.79708942  0.14774850  0.17218316    -0.16800
C2262       C  0.85690698  0.15185483  0.17203613    -0.16600
C2263       C  0.85255873  0.20733874  0.17201072    -0.17000
C2264       C  0.79793629  0.14841622  0.18525228    -0.17000
C2265       C  0.85600275  0.15155421  0.18509204    -0.16500
C2266       C  0.85287153  0.20656804  0.18507011    -0.16800
C2267       C  0.00253861  0.00261615  0.12021359     0.45900
H2268       H  0.00228257  0.00249821  0.10963226    -0.03200
C2269       C  0.00284637  0.00274588  0.14505457     0.45900
H2270       H  0.50300006  0.00285817  0.15558593    -0.03200
C2271       C  0.98510273  0.02288434  0.12598618    -0.16800
C2272       C  0.98235839  0.46507705  0.12598063    -0.16600
C2273       C  0.54029265  0.02003915  0.12580294    -0.17000
C2274       C  0.98545158  0.02387743  0.13904881    -0.17000
C2275       C  0.98165927  0.46426637  0.13904043    -0.16500
C2276       C  0.54120114  0.02005036  0.13888587    -0.16800
Zn2277     Zn  0.71773878  0.36181736  0.93611609     1.49700
Zn2278     Zn  0.66492147  0.33190984  0.91222717     1.49400
Zn2279     Zn  0.64408363  0.28445973  0.93720667     1.49100
Zn2280     Zn  0.64196449  0.35897896  0.93653782     1.49500
O2281       O  0.66719600  0.33420698  0.93060483    -1.83700
O2282       O  0.75177044  0.37525426  0.92117713    -0.74300
O2283       O  0.64136800  0.28105688  0.90607410    -0.74200
O2284       O  0.67821668  0.27896235  0.94892048    -0.73700
O2285       O  0.71430400  0.35573224  0.90474134    -0.74400
O2286       O  0.72841044  0.33237893  0.94836017    -0.74000
O2287       O  0.62814988  0.24654263  0.92318531    -0.74500
O2288       O  0.60309847  0.32740138  0.94867620    -0.73900
O2289       O  0.63754172  0.35482523  0.90504765    -0.74700
O2290       O  0.60179928  0.27456460  0.94846901    -0.74100
O2291       O  0.62046782  0.37335469  0.92205752    -0.74500
O2292       O  0.67428470  0.40222362  0.94717175    -0.74500
O2293       O  0.72822098  0.40635263  0.94631345    -0.74200
C2294       C  0.74614193  0.37093417  0.90923400     0.77500
C2295       C  0.62885315  0.25004513  0.91112402     0.78000
C2296       C  0.71019842  0.30042156  0.95274301     0.77000
C2297       C  0.59041473  0.29517425  0.95266579     0.77400
C2298       C  0.62107197  0.36984758  0.91003227     0.78500
C2299       C  0.70724176  0.41723436  0.95054602     0.77600
Zn2300     Zn  0.86099504  0.14458516  0.04043698     1.49700
Zn2301     Zn  0.78658661  0.14728244  0.03993940     1.49400
Zn2302     Zn  0.83542833  0.16977929  0.06474455     1.49100
Zn2303     Zn  0.86252760  0.22060109  0.04098261     1.49500
O2304       O  0.83623137  0.17032189  0.04639522    -1.83700
O2305       O  0.82910422  0.10429827  0.02840140    -0.74300
O2306       O  0.74990549  0.12609653  0.05434631    -0.74200
O2307       O  0.86191586  0.14637727  0.07181821    -0.73700
O2308       O  0.77896296  0.10796369  0.02750060    -0.74400
O2309       O  0.87718989  0.12513953  0.05510520    -0.74000
O2310       O  0.78535459  0.14238594  0.07129726    -0.74500
O2311       O  0.87866878  0.25584197  0.05552384    -0.73900
O2312       O  0.77779578  0.18265664  0.02977407    -0.74700
O2313       O  0.85706406  0.21919880  0.07208380    -0.74100
O2314       O  0.83192373  0.23185348  0.02984739    -0.74500
O2315       O  0.90462697  0.22977843  0.03015440    -0.74500
O2316       O  0.90458414  0.17761446  0.02990409    -0.74200
C2317       C  0.79790304  0.09408500  0.02376425     0.77500
C2318       C  0.75406851  0.12663616  0.06637922     0.78000
C2319       C  0.87629982  0.12905812  0.06710775     0.77000
C2320       C  0.87352793  0.25087805  0.06745143     0.77400
C2321       C  0.79935470  0.21487984  0.02610278     0.78500
C2322       C  0.91763912  0.21027512  0.02630579     0.77600
C2323       C  0.80018457  0.27132858  0.99819382    -0.27200
C2324       C  0.76320377  0.25839397  0.99637194     0.02400
C2325       C  0.73824092  0.23345846  0.00517711     0.30500
C2326       C  0.75027282  0.22018593  0.01508589    -0.19000
C2327       C  0.78724845  0.23230228  0.01664737    -0.28400
C2328       C  0.81234350  0.25909535  0.00832613     0.44500
C2329       C  0.75092291  0.26944377  0.98488530     0.05700
O2330       O  0.70194325  0.22130740  0.00403425    -0.56900
H2331       H  0.73058760  0.20003304  0.02146265     0.18700
O2332       O  0.84874128  0.27165348  0.00939787    -0.63600
H2333       H  0.81981060  0.28999991  0.99145311     0.17100
C2334       C  0.76677039  0.30600086  0.98121433     0.29400
C2335       C  0.75417909  0.31546165  0.97041793    -0.24500
C2336       C  0.72576109  0.28896414  0.96310698    -0.23800
C2337       C  0.71082343  0.25230078  0.96655213     0.40800
C2338       C  0.72352698  0.24286087  0.97730086    -0.26300
O2339       O  0.79308343  0.33283401  0.98852208    -0.58100
H2340       H  0.76590287  0.34385403  0.96806119     0.16400
O2341       O  0.68340535  0.22541847  0.95962894    -0.59600
H2342       H  0.71183376  0.21451933  0.97972525     0.14900
H2343       H  0.85821590  0.29419401  0.01446407     0.46700
H2344       H  0.81561740  0.34251941  0.98342774     0.42100
H2345       H  0.69561740  0.21930779  0.95281898     0.45600
H2346       H  0.69813110  0.24008806  0.00817171     0.37100
C2347       C  0.71023168  0.46887834  0.98029694    -0.27200
C2348       C  0.74669391  0.49579088  0.98078045     0.02400
C2349       C  0.77009840  0.49788390  0.97089802     0.30500
C2350       C  0.75699678  0.47277813  0.96088168    -0.19000
C2351       C  0.72042095  0.44578518  0.96042766    -0.28400
C2352       C  0.69704281  0.44408149  0.97028468     0.44500
C2353       C  0.75998171  0.02089879  0.99178127     0.05700
O2354       O  0.80590546  0.02428392  0.97092729    -0.56900
H2355       H  0.77545933  0.47434941  0.95348046     0.18700
O2356       O  0.66149422  0.41726614  0.97055360    -0.63600
H2357       H  0.69200982  0.46642128  0.98792675     0.17100
C2358       C  0.74319188  0.04101154  0.99518040     0.29400
C2359       C  0.75524634  0.06385611  0.00578404    -0.24500
C2360       C  0.78402822  0.06710645  0.01326871    -0.23800
C2361       C  0.80044082  0.04639136  0.00996084     0.40800
C2362       C  0.78846520  0.02368439  0.99927920    -0.26300
O2363       O  0.71604302  0.03977696  0.98782616    -0.58100
H2364       H  0.74243388  0.07974446  0.00794510     0.16400
O2365       O  0.82833972  0.04822111  0.01700671    -0.59600
H2366       H  0.80122213  0.00785950  0.99691983     0.14900
H2367       H  0.66138208  0.39672480  0.97503443     0.46700
H2368       H  0.69354434  0.02550371  0.99281457     0.42100
H2369       H  0.81663392  0.02913756  0.02357528     0.45600
H2370       H  0.80663201  0.04519113  0.96650715     0.37100
C2371       C  0.51538652  0.23534968  0.97551007    -0.27200
C2372       C  0.51911964  0.26066611  0.98479378     0.02400
C2373       C  0.54553007  0.29718046  0.98327742     0.30500
C2374       C  0.56770581  0.30803318  0.97252227    -0.19000
C2375       C  0.56413906  0.28281364  0.96320099    -0.28400
C2376       C  0.53767506  0.24621512  0.96473391     0.44500
C2377       C  0.99464426  0.24896036  0.99584998     0.05700
O2378       O  0.55093398  0.32202264  0.99257309    -0.56900
H2379       H  0.58854725  0.33614664  0.97168047     0.18700
O2380       O  0.53329460  0.22095190  0.95576893    -0.63600
H2381       H  0.99493791  0.20718351  0.97656111     0.17100
C2382       C  0.97121038  0.26285563  0.99777263     0.29400
C2383       C  0.94775700  0.25136518  0.00816011    -0.24500
C2384       C  0.94645808  0.22518459  0.01659507    -0.23800
C2385       C  0.97019725  0.21146270  0.01472812     0.40800
C2386       C  0.99408347  0.22338429  0.00437835    -0.26300
O2387       O  0.97018135  0.28678883  0.98929500    -0.58100
H2388       H  0.92930516  0.26178765  0.00925263     0.16400
O2389       O  0.96999621  0.18616038  0.02283373    -0.59600
H2390       H  0.51201159  0.21254355  0.00294463     0.14900
H2391       H  0.51676727  0.22185907  0.94934136     0.46700
H2392       H  0.95235127  0.27155292  0.98275388     0.42100
H2393       H  0.98636209  0.20027443  0.02988946     0.45600
H2394       H  0.54207754  0.33766440  0.98893126     0.37100
C2395       C  0.95822641  0.37697762  0.10959871    -0.27200
C2396       C  0.93193830  0.37425007  0.10096161     0.02400
C2397       C  0.92192639  0.40111467  0.10072757     0.30500
C2398       C  0.93834179  0.43038769  0.10908500    -0.19000
C2399       C  0.96468320  0.43313180  0.11766421    -0.28400
C2400       C  0.97494200  0.40646700  0.11782568     0.44500
C2401       C  0.91529740  0.34310059  0.09227256     0.05700
O2402       O  0.89520766  0.39815211  0.09271866    -0.56900
H2403       H  0.93038506  0.45092451  0.10892745     0.18700
O2404       O  0.00158845  0.40927891  0.12582651    -0.63600
H2405       H  0.96623743  0.35648696  0.10977767     0.17100
C2406       C  0.91917683  0.34780297  0.07901390     0.29400
C2407       C  0.90501464  0.31761228  0.07103195    -0.24500
C2408       C  0.88696508  0.28240480  0.07610108    -0.23800
C2409       C  0.88237242  0.27797489  0.08943909     0.40800
C2410       C  0.89683781  0.30819999  0.09737323    -0.26300
O2411       O  0.93745303  0.38174500  0.07377846    -0.58100
H2412       H  0.90868688  0.32187029  0.06085564     0.16400
O2413       O  0.86448299  0.24432187  0.09490479    -0.59600
H2414       H  0.89370827  0.30439708  0.10758702     0.14900
H2415       H  0.02462861  0.42563274  0.12142471     0.46700
H2416       H  0.96337290  0.38882257  0.07425288     0.42100
H2417       H  0.83899265  0.23864038  0.09567523     0.45600
H2418       H  0.90762241  0.41747724  0.08627236     0.37100
C2419       C  0.90796159  0.10299486  0.09707934    -0.27200
C2420       C  0.92292601  0.08299430  0.09198863     0.02400
C2421       C  0.92215783  0.07762011  0.07877860     0.30500
C2422       C  0.90681903  0.09263474  0.07078948    -0.19000
C2423       C  0.89213576  0.11320011  0.07580664    -0.28400
C2424       C  0.89261107  0.11802331  0.08915699     0.44500
C2425       C  0.93898871  0.06765772  0.10064264     0.05700
O2426       O  0.93498938  0.05648015  0.07368214    -0.56900
H2427       H  0.90634681  0.08798573  0.06064268     0.18700
O2428       O  0.87870318  0.13778878  0.09461652    -0.63600
H2429       H  0.90839185  0.10715494  0.10726715     0.17100
C2430       C  0.97620285  0.07951592  0.10024656     0.29400
C2431       C  0.99092469  0.06509181  0.10874166    -0.24500
C2432       C  0.96889815  0.03892015  0.11765963    -0.23800
C2433       C  0.93160406  0.02676420  0.11798568     0.40800
C2434       C  0.91691208  0.04137425  0.10953519    -0.26300
O2435       O  0.99845434  0.10609552  0.09190272    -0.58100
H2436       H  0.01963717  0.07438099  0.10839171     0.16400
O2437       O  0.90918744  0.49917582  0.12596481    -0.59600
H2438       H  0.88813749  0.03181181  0.10978768     0.14900
H2439       H  0.85347583  0.11983458  0.09695663     0.46700
H2440       H  0.00620436  0.09393172  0.08560846     0.42100
H2441       H  0.89783266  0.50945861  0.13158842     0.45600
H2442       H  0.95728664  0.07336396  0.06899334     0.37100
C2443       C  0.69581411  0.09055939  0.09609254    -0.27200
C2444       C  0.66133853  0.07905302  0.09117552     0.02400
C2445       C  0.65710288  0.08240524  0.07807597     0.30500
C2446       C  0.68740861  0.09749679  0.07006018    -0.19000
C2447       C  0.72217802  0.10925332  0.07494045    -0.28400
C2448       C  0.72605652  0.10525615  0.08812687     0.44500
C2449       C  0.63013666  0.06395205  0.09992319     0.05700
O2450       O  0.62369559  0.07268145  0.07316894    -0.56900
H2451       H  0.68366325  0.10054271  0.06004168     0.18700
O2452       O  0.75925028  0.11596169  0.09342498    -0.63600
H2453       H  0.69925122  0.08795715  0.10617872     0.17100
C2454       C  0.60311412  0.02742701  0.09915020     0.29400
C2455       C  0.57443160  0.01339810  0.10783663    -0.24500
C2456       C  0.57218360  0.03549301  0.11727186    -0.23800
C2457       C  0.59885699  0.07227918  0.11786232     0.40800
C2458       C  0.62794530  0.08611012  0.10935508    -0.26300
O2459       O  0.60534559  0.00503286  0.09024774    -0.58100
H2460       H  0.55389879  0.48516992  0.10724166     0.16400
O2461       O  0.59641175  0.09507973  0.12651326    -0.59600
H2462       H  0.64856774  0.11435104  0.10996608     0.14900
H2463       H  0.76218842  0.09428990  0.09309297     0.46700
H2464       H  0.58623290  0.50033377  0.08396709     0.42100
H2465       H  0.57890534  0.10143932  0.12281499     0.45600
H2466       H  0.61703836  0.05096559  0.06788734     0.37100
C2467       C  0.92380867  0.04742863  0.15792447    -0.27200
C2468       C  0.93635993  0.08328786  0.15391037     0.02400
C2469       C  0.96826716  0.10063645  0.14660512     0.30500
C2470       C  0.98591493  0.08179600  0.14289453    -0.19000
C2471       C  0.97203694  0.04525415  0.14614108    -0.28400
C2472       C  0.94149853  0.02844579  0.15411500     0.44500
C2473       C  0.91630732  0.10260056  0.15732139     0.05700
O2474       O  0.98157896  0.13557621  0.14254536    -0.56900
H2475       H  0.00946400  0.09517222  0.13678213     0.18700
O2476       O  0.92767765  0.49301436  0.15767080    -0.63600
H2477       H  0.89982640  0.03390257  0.16381390     0.17100
C2478       C  0.87972786  0.08879343  0.15393692     0.29400
C2479       C  0.86116758  0.10695645  0.15769153    -0.24500
C2480       C  0.87854934  0.13868692  0.16496593    -0.23800
C2481       C  0.91573109  0.15366192  0.16761746     0.40800
C2482       C  0.93415123  0.13556406  0.16390558    -0.26300
O2483       O  0.86199875  0.05768384  0.14690274    -0.58100
H2484       H  0.83263972  0.09506749  0.15559027     0.16400
O2485       O  0.93381072  0.18496396  0.17454136    -0.59600
H2486       H  0.96230155  0.14683200  0.16650234     0.14900
H2487       H  0.91071707  0.47851885  0.15080872     0.46700
H2488       H  0.84724789  0.03840827  0.15311971     0.42100
H2489       H  0.93997569  0.20476191  0.16836108     0.45600
H2490       H  0.96832216  0.13366364  0.13457821     0.37100
C2491       C  0.95799512  0.37805087  0.15727716    -0.27200
C2492       C  0.92176318  0.35533735  0.15358972     0.02400
C2493       C  0.90438428  0.37068775  0.14667022     0.30500
C2494       C  0.92336816  0.40727374  0.14312786    -0.19000
C2495       C  0.96016073  0.42936501  0.14610727    -0.28400
C2496       C  0.97706316  0.41478766  0.15365347     0.44500
C2497       C  0.90219799  0.31585148  0.15696324     0.01500
O2498       O  0.86927012  0.34972426  0.14276826    -0.56900
H2499       H  0.90985929  0.41793692  0.13730293     0.18700
O2500       O  0.51293595  0.43534244  0.15668170    -0.63600
H2501       H  0.97176495  0.36708064  0.16279114     0.17100
C2502       C  0.91627223  0.29291761  0.15382641     0.29400
C2503       C  0.89819711  0.25639417  0.15772388    -0.24500
C2504       C  0.86615041  0.24219068  0.16488158    -0.23800
C2505       C  0.85092858  0.26445103  0.16726169     0.40800
C2506       C  0.86891686  0.30079020  0.16340377    -0.26300
O2507       O  0.94821814  0.30615779  0.14727390    -0.58100
H2508       H  0.91046033  0.23983614  0.15586985     0.16400
O2509       O  0.81933914  0.25140999  0.17402944    -0.59600
H2510       H  0.85734334  0.31762499  0.16584680     0.14900
H2511       H  0.51338454  0.44766214  0.16474551     0.46700
H2512       H  0.94183553  0.30651615  0.13822914     0.42100
H2513       H  0.79984265  0.23973358  0.16762595     0.45600
H2514       H  0.87088738  0.34116208  0.13414253     0.37100
C2515       C  0.70400897  0.07152636  0.16357708    -0.27200
C2516       C  0.68846137  0.09014525  0.15769170     0.02400
C2517       C  0.71082811  0.12734858  0.15501754     0.30500
C2518       C  0.74744594  0.14544899  0.15868324    -0.19000
C2519       C  0.76224479  0.12705198  0.16516718    -0.28400
C2520       C  0.74045153  0.08953041  0.16719516     0.44500
C2521       C  0.64929836  0.07013291  0.15406809     0.05700
O2522       O  0.69698054  0.14651125  0.14912276    -0.56900
H2523       H  0.76365619  0.17435158  0.15718663     0.18700
O2524       O  0.75405184  0.07055403  0.17338963    -0.63600
H2525       H  0.68754015  0.04297324  0.16568464     0.17100
C2526       C  0.63543795  0.03852121  0.14660788     0.29400
C2527       C  0.59921355  0.02067470  0.14277449    -0.24500
C2528       C  0.57604900  0.03413048  0.14594485    -0.23800
C2529       C  0.58917377  0.06471614  0.15389224     0.40800
C2530       C  0.62553848  0.08247172  0.15790874    -0.26300
O2531       O  0.65755566  0.02574738  0.14246399    -0.58100
H2532       H  0.58964735  0.99726527  0.13662630     0.16400
O2533       O  0.56725450  0.07845232  0.15727682    -0.59600
H2534       H  0.63539775  0.10634721  0.16382456     0.14900
H2535       H  0.76756138  0.06535229  0.16681165     0.46700
H2536       H  0.66846787  0.03902369  0.13445058     0.42100
H2537       H  0.57028233  0.09575867  0.15043975     0.45600
H2538       H  0.69771044  0.14194360  0.13990334     0.37100
C2539       C  0.93981303  0.14114476  0.64752764    -0.27200
C2540       C  0.92811578  0.10429182  0.64918122     0.02400
C2541       C  0.90409620  0.07922083  0.64025675     0.30500
C2542       C  0.89047301  0.09084305  0.63035784    -0.19000
C2543       C  0.90092218  0.12754901  0.62898937    -0.28400
C2544       C  0.92654533  0.15290387  0.63753904     0.44500
C2545       C  0.93895085  0.09191735  0.66069098     0.05700
O2546       O  0.89310725  0.04311957  0.64130413    -0.56900
H2547       H  0.87116370  0.07090074  0.62385458     0.18700
O2548       O  0.93765814  0.18906119  0.63660728    -0.63600
H2549       H  0.95805557  0.16078866  0.65433900     0.17100
C2550       C  0.97544634  0.10676721  0.66419907     0.29400
C2551       C  0.98462562  0.09342654  0.67489070    -0.24500
C2552       C  0.95781458  0.06534230  0.68229697    -0.23800
C2553       C  0.92118091  0.05182899  0.67908244     0.40800
C2554       C  0.91211270  0.06505775  0.66837490    -0.26300
O2555       O  0.00240541  0.13270226  0.65680164    -0.58100
H2556       H  0.51287655  0.10447145  0.67716782     0.16400
O2557       O  0.89393189  0.02502581  0.68611604    -0.59600
H2558       H  0.88383618  0.05409079  0.66601949     0.14900
H2559       H  0.92101428  0.19283383  0.64218728     0.46700
H2560       H  0.51172450  0.15577724  0.66185489     0.42100
H2561       H  0.88620843  0.53748888  0.69204389     0.45600
H2562       H  0.91030276  0.03950001  0.63598535     0.37100
C2563       C  0.89891840  0.37410348  0.66194440    -0.27200
C2564       C  0.91230591  0.35069656  0.65927504     0.02400
C2565       C  0.93777819  0.34972670  0.66753798     0.30500
C2566       C  0.95039844  0.37286692  0.67803454    -0.19000
C2567       C  0.93751542  0.39684725  0.68061826    -0.28400
C2568       C  0.91100237  0.39681576  0.67255106     0.44500
C2569       C  0.89999946  0.32779362  0.64775573     0.05700
O2570       O  0.95075133  0.32646557  0.66537091    -0.56900
H2571       H  0.47073756  0.37246031  0.68396125     0.18700
O2572       O  0.89821757  0.42033364  0.67446344    -0.63600
H2573       H  0.87964527  0.37546421  0.65559512     0.17100
C2574       C  0.86299204  0.30453707  0.64543284     0.29400
C2575       C  0.85218187  0.28109409  0.63501517    -0.24500
C2576       C  0.87785965  0.28031764  0.62679666    -0.23800
C2577       C  0.91482171  0.30529800  0.62869224     0.40800
C2578       C  0.92558719  0.32871275  0.63911702    -0.26300
O2579       O  0.83736101  0.30255192  0.65382787    -0.58100
H2580       H  0.82364357  0.26208461  0.63381530     0.16400
O2581       O  0.94076978  0.30629571  0.62069084    -0.59600
H2582       H  0.95412466  0.34723314  0.64060230     0.14900
H2583       H  0.87548367  0.40639139  0.67936075     0.46700
H2584       H  0.82566647  0.31475308  0.64950797     0.42100
H2585       H  0.94325558  0.32329783  0.61381160     0.45600
H2586       H  0.93373104  0.30383088  0.66985655     0.37100
C2587       C  0.68083736  0.10447443  0.64379843    -0.27200
C2588       C  0.68615695  0.08389093  0.65307032     0.02400
C2589       C  0.71338533  0.07480502  0.65127717     0.30500
C2590       C  0.73519280  0.08674168  0.64043519    -0.19000
C2591       C  0.73070238  0.10831276  0.63131881    -0.28400
C2592       C  0.70287249  0.11673458  0.63299202     0.44500
C2593       C  0.66247914  0.07125646  0.66439436     0.05700
O2594       O  0.71941822  0.05493736  0.66020282    -0.56900
H2595       H  0.75659023  0.08017177  0.63941433     0.18700
O2596       O  0.69701239  0.13698363  0.62418113    -0.63600
H2597       H  0.65937595  0.11091160  0.64491662     0.17100
C2598       C  0.65839669  0.09574486  0.67224526     0.29400
C2599       C  0.63337863  0.08284629  0.68222847    -0.24500
C2600       C  0.61179500  0.04550998  0.68447300    -0.23800
C2601       C  0.61726724  0.02114231  0.67692977     0.40800
C2602       C  0.64250756  0.03415581  0.66702395    -0.26300
O2603       O  0.67901081  0.13233035  0.67028440    -0.58100
H2604       H  0.63014707  0.10218712  0.68797572     0.16400
O2605       O  0.59724810  0.48453592  0.67877047    -0.59600
H2606       H  0.64541767  0.01502819  0.66103491     0.14900
H2607       H  0.68068791  0.11934901  0.61778050     0.46700
H2608       H  0.66246181  0.13970279  0.66640721     0.42100
H2609       H  0.57649237  0.47616361  0.67286626     0.45600
H2610       H  0.73612176  0.07286896  0.66645338     0.37100
C2611       C  0.75426704  0.02613987  0.54972072    -0.27200
C2612       C  0.74326277  0.49189342  0.55460090     0.02400
C2613       C  0.74762647  0.98761005  0.56766765     0.30500
C2614       C  0.76371886  0.01804259  0.57558905    -0.19000
C2615       C  0.77514452  0.05276840  0.57067100    -0.28400
C2616       C  0.76977571  0.05645513  0.55758365     0.44500
C2617       C  0.72769766  0.46077585  0.54590347     0.05700
O2618       O  0.73819093  0.45430703  0.57249219    -0.56900
H2619       H  0.76756120  0.01442595  0.58554980     0.18700
O2620       O  0.77978377  0.08952884  0.55227430    -0.63600
H2621       H  0.75073291  0.02943912  0.53969587     0.17100
C2622       C  0.69088670  0.43457487  0.54654929     0.29400
C2623       C  0.67652058  0.40592689  0.53786602    -0.24500
C2624       C  0.69852511  0.40331046  0.52847067    -0.23800
C2625       C  0.73547430  0.42942366  0.52792425     0.40800
C2626       C  0.74972939  0.45818431  0.53652975    -0.26300
O2627       O  0.66858407  0.43776139  0.55525327    -0.58100
H2628       H  0.64803953  0.38594405  0.53834840     0.16400
O2629       O  0.75785089  0.42694958  0.51907980    -0.59600
H2630       H  0.77812065  0.47839410  0.53596765     0.14900
H2631       H  0.75842655  0.09279111  0.55328076     0.46700
H2632       H  0.66313783  0.41872047  0.56168867     0.42100
H2633       H  0.77002649  0.41555545  0.52358195     0.45600
H2634       H  0.71549761  0.44687560  0.57728419     0.37100
C2635       C  0.56000095  0.25335803  0.54344085    -0.27200
C2636       C  0.53278381  0.26247711  0.54223179     0.02400
C2637       C  0.53608620  0.28792414  0.53304783     0.30500
C2638       C  0.56701883  0.30474194  0.52543498    -0.19000
C2639       C  0.59429293  0.29564617  0.52663342    -0.28400
C2640       C  0.59051439  0.26954335  0.53563380     0.44500
C2641       C  0.50217399  0.24705628  0.55115918     0.05700
O2642       O  0.51017073  0.29793317  0.53197211    -0.56900
H2643       H  0.57002168  0.32540175  0.51875921     0.18700
O2644       O  0.61658584  0.25985382  0.53693726    -0.63600
H2645       H  0.55758877  0.23374985  0.55049861     0.17100
C2646       C  0.96658184  0.22554866  0.54687406     0.29400
C2647       C  0.93785496  0.21291482  0.55546579    -0.24500
C2648       C  0.94397939  0.22151300  0.56850001    -0.23800
C2649       C  0.97987178  0.24282060  0.57282825     0.40800
C2650       C  0.50866968  0.25515845  0.56412693    -0.26300
O2651       O  0.95969797  0.21654942  0.53425452    -0.58100
H2652       H  0.91068534  0.19632257  0.55185827     0.16400
O2653       O  0.98737848  0.25156606  0.58543644    -0.59600
H2654       H  0.53608421  0.27187012  0.56751602     0.14900
H2655       H  0.61005502  0.24002717  0.53072904     0.46700
H2656       H  0.96262833  0.19501703  0.53315175     0.42100
H2657       H  0.98976314  0.27584448  0.58632191     0.45600
H2658       H  0.49682977  0.28622626  0.52405927     0.37100
C2659       C  0.73535569  0.29878047  0.54494177    -0.27200
C2660       C  0.72520476  0.26250481  0.54270080     0.02400
C2661       C  0.70201798  0.24401302  0.53247594     0.30500
C2662       C  0.68926357  0.26195806  0.52471929    -0.19000
C2663       C  0.69975018  0.29836607  0.52692611    -0.28400
C2664       C  0.72285807  0.31672912  0.53714178     0.44500
C2665       C  0.73865307  0.24453908  0.55137300     0.05700
O2666       O  0.69012676  0.20799052  0.53046870    -0.56900
H2667       H  0.67050019  0.24718130  0.51713927     0.18700
O2668       O  0.73327098  0.35220153  0.53959827    -0.63600
H2669       H  0.75323488  0.31333515  0.55276467     0.17100
C2670       C  0.75873027  0.22882782  0.54679776     0.29400
C2671       C  0.77323145  0.21433502  0.55534735    -0.24500
C2672       C  0.76875646  0.21586660  0.56857958    -0.23800
C2673       C  0.74858792  0.23170668  0.57310691     0.40800
C2674       C  0.73356109  0.24557172  0.56452045    -0.26300
O2675       O  0.76534009  0.22851132  0.53403265    -0.58100
H2676       H  0.78870248  0.20252851  0.55155943     0.16400
O2677       O  0.74357426  0.23416472  0.58588046    -0.59600
H2678       H  0.71830867  0.25779683  0.56816372     0.14900
H2679       H  0.75908515  0.36605721  0.53709957     0.46700
H2680       H  0.78730321  0.25206802  0.53230301     0.42100
H2681       H  0.76374659  0.25808947  0.58848960     0.45600
H2682       H  0.70090894  0.20678390  0.52223543     0.37100
C2683       C  0.70267806  0.46941364  0.49902576    -0.27200
C2684       C  0.73506360  0.48353436  0.49206972     0.02400
C2685       C  0.74804243  0.45992284  0.48860712     0.30500
C2686       C  0.72951689  0.42345490  0.49251076    -0.19000
C2687       C  0.69807868  0.40998681  0.49996566    -0.28400
C2688       C  0.68413133  0.43309577  0.50283431     0.44500
C2689       C  0.75437761  0.02260053  0.48831275     0.05700
O2690       O  0.77916110  0.47234707  0.48160742    -0.56900
H2691       H  0.74076907  0.40619967  0.49029026     0.18700
O2692       O  0.65312500  0.42080830  0.50990196    -0.63600
H2693       H  0.69208226  0.48686824  0.50178867     0.17100
C2694       C  0.73620467  0.03738297  0.48156433     0.29400
C2695       C  0.75494852  0.07342865  0.47743915    -0.24500
C2696       C  0.79199466  0.09566301  0.47990663    -0.23800
C2697       C  0.80983968  0.08171019  0.48725926     0.40800
C2698       C  0.79109713  0.04541179  0.49137505    -0.26300
O2699       O  0.70072705  0.51606354  0.47811474    -0.58100
H2700       H  0.74081946  0.08364120  0.47172799     0.16400
O2701       O  0.84581153  0.10286332  0.49008723    -0.59600
H2702       H  0.80540456  0.03487514  0.49680752     0.14900
H2703       H  0.63307060  0.40815988  0.50375668     0.46700
H2704       H  0.68695409  0.52366843  0.48372272     0.42100
H2705       H  0.85895624  0.10033313  0.48272081     0.45600
H2706       H  0.77168739  0.97177260  0.47269553     0.37100
C2707       C  0.95635801  0.24922496  0.49110125    -0.27200
C2708       C  0.98076379  0.23844689  0.48657655     0.02400
C2709       C  0.96732797  0.20771008  0.47867154     0.30500
C2710       C  0.93077396  0.18899913  0.47521779    -0.19000
C2711       C  0.90685886  0.20099907  0.47906425    -0.28400
C2712       C  0.91971624  0.23081587  0.48737431     0.44500
C2713       C  0.51999101  0.25867467  0.49022543     0.05700
O2714       O  0.99008450  0.19661852  0.47376736    -0.56900
H2715       H  0.92148750  0.16617614  0.46880177     0.18700
O2716       O  0.89720171  0.24323127  0.49140241    -0.63600
H2717       H  0.96586392  0.27234378  0.49737867     0.17100
C2718       C  0.54170331  0.29646178  0.48849847     0.29400
C2719       C  0.57807448  0.31462386  0.49248973    -0.24500
C2720       C  0.59337649  0.29563741  0.49825549    -0.23800
C2721       C  0.57217855  0.25775346  0.49942024     0.40800
C2722       C  0.53600235  0.23970952  0.49549248    -0.26300
O2723       O  0.52744994  0.31604819  0.48321013    -0.58100
H2724       H  0.59370430  0.34381479  0.49175556     0.16400
O2725       O  0.58587999  0.23838117  0.50526735    -0.59600
H2726       H  0.51998207  0.21078818  0.49698244     0.14900
H2727       H  0.90074271  0.26231725  0.48523368     0.46700
H2728       H  0.52888386  0.31338517  0.47388583     0.42100
H2729       H  0.59906954  0.23342373  0.49850225     0.45600
H2730       H  0.49942704  0.21039877  0.46571056     0.37100
C2731       C  0.75068444  0.21171135  0.49061097    -0.27200
C2732       C  0.76523699  0.24859791  0.48757130     0.02400
C2733       C  0.79902198  0.26654863  0.48133546     0.30500
C2734       C  0.81672367  0.24756470  0.47778792    -0.19000
C2735       C  0.80122079  0.21034351  0.48015438    -0.28400
C2736       C  0.76850941  0.19267041  0.48700932     0.44500
C2737       C  0.74540061  0.26834390  0.49092574     0.05700
O2738       O  0.81419640  0.30232565  0.47806531    -0.56900
H2739       H  0.84166026  0.26149259  0.47239482     0.18700
O2740       O  0.75212054  0.15618017  0.48921777    -0.63600
H2741       H  0.72505600  0.19744909  0.49557293     0.17100
C2742       C  0.70892511  0.25515507  0.48743103     0.29400
C2743       C  0.69059133  0.27344792  0.49132072    -0.24500
C2744       C  0.70816581  0.30504695  0.49866776    -0.23800
C2745       C  0.74518828  0.31943976  0.50142931     0.40800
C2746       C  0.76328895  0.30102653  0.49770061    -0.26300
O2747       O  0.69067244  0.22396908  0.48047391    -0.58100
H2748       H  0.66210841  0.26183794  0.48921053     0.16400
O2749       O  0.76330136  0.35022998  0.50861618    -0.59600
H2750       H  0.79120990  0.31177101  0.50050631     0.14900
H2751       H  0.76428631  0.15362352  0.49685295     0.46700
H2752       H  0.69714730  0.23151608  0.47148460     0.42100
H2753       H  0.76788783  0.37039542  0.50280666     0.45600
H2754       H  0.80400682  0.30237005  0.46959801     0.37100
C2755       C  0.88325683  0.46620306  0.87253246    -0.27200
C2756       C  0.86691237  0.42890637  0.87464342     0.02400
C2757       C  0.87952114  0.40844339  0.86815125     0.30500
C2758       C  0.90899104  0.42566774  0.85988506    -0.19000
C2759       C  0.92579059  0.46309943  0.85800399    -0.28400
C2760       C  0.91242047  0.48337045  0.86414713     0.44500
C2761       C  0.83660814  0.41185929  0.88364401     0.05700
O2762       O  0.86374190  0.37186323  0.87005756    -0.56900
H2763       H  0.91936579  0.41002490  0.85517874     0.18700
O2764       O  0.92842537  0.01990291  0.86234909    -0.63600
H2765       H  0.87333199  0.48200244  0.87740436     0.17100
C2766       C  0.84196585  0.42023163  0.89666177     0.29400
C2767       C  0.81240672  0.40604136  0.90494679    -0.24500
C2768       C  0.77714571  0.38387859  0.90036246    -0.23800
C2769       C  0.77213515  0.37474839  0.88728195     0.40800
C2770       C  0.80181405  0.38880099  0.87906009    -0.26300
O2771       O  0.87608282  0.44200058  0.90136056    -0.58100
H2772       H  0.81712114  0.41308527  0.91493424     0.16400
O2773       O  0.73839715  0.35271385  0.88233767    -0.59600
H2774       H  0.79758336  0.38235447  0.86901166     0.14900
H2775       H  0.90914113  0.02425343  0.85903396     0.46700
H2776       H  0.87873978  0.46643535  0.90197587     0.42100
H2777       H  0.73491491  0.32792235  0.88278503     0.45600
H2778       H  0.87685410  0.36907654  0.87735871     0.37100
C2779       C  0.56350392  0.40936247  0.89811950    -0.27200
C2780       C  0.56844152  0.40929695  0.88493356     0.02400
C2781       C  0.59017907  0.39589948  0.88002182     0.30500
C2782       C  0.60695834  0.38309419  0.88829774    -0.19000
C2783       C  0.60241612  0.38332486  0.90156932    -0.28400
C2784       C  0.58023935  0.39656412  0.90643075     0.44500
C2785       C  0.55332548  0.42607742  0.87646639     0.05700
O2786       O  0.59692776  0.39729407  0.86720074    -0.56900
H2787       H  0.62407107  0.37348766  0.88426498     0.18700
O2788       O  0.57437236  0.39686700  0.91925052    -0.63600
H2789       H  0.54687985  0.41978116  0.90199070     0.17100
C2790       C  0.52924351  0.40649045  0.86657633     0.29400
C2791       C  0.51719244  0.42395045  0.85829298    -0.24500
C2792       C  0.52875618  0.46083170  0.85980841    -0.23800
C2793       C  0.55190171  0.48005110  0.86995018     0.40800
C2794       C  0.56415455  0.46268501  0.87813878    -0.26300
O2795       O  0.51712961  0.37029863  0.86501257    -0.58100
H2796       H  0.49829853  0.40854516  0.85082548     0.16400
O2797       O  0.56404785  0.51624982  0.87156594    -0.59600
H2798       H  0.58273522  0.47804093  0.88569906     0.14900
H2799       H  0.59245948  0.42147604  0.92214389     0.46700
H2800       H  0.49583192  0.35788924  0.87070890     0.42100
H2801       H  0.55139719  0.51797431  0.87923987     0.45600
H2802       H  0.58271396  0.37197072  0.86417648     0.37100
C2803       C  0.60064010  0.19048974  0.88158526    -0.27200
C2804       C  0.58706874  0.15604923  0.88687346     0.02400
C2805       C  0.58861164  0.15243323  0.90013016     0.30500
C2806       C  0.60257573  0.18319187  0.90794350    -0.19000
C2807       C  0.61514463  0.21780538  0.90269669    -0.28400
C2808       C  0.61468901  0.22116312  0.88930124     0.44500
C2809       C  0.56987947  0.12429011  0.87836212     0.05700
O2810       O  0.57763763  0.11912063  0.90543469    -0.56900
H2811       H  0.60340516  0.17983380  0.91812631     0.18700
O2812       O  0.62702490  0.25416375  0.88357709    -0.63600
H2813       H  0.59962579  0.19357353  0.87138504     0.17100
C2814       C  0.53314084  0.09840065  0.87977715     0.29400
C2815       C  0.51649320  0.07028041  0.87098263    -0.24500
C2816       C  0.53574950  0.06760475  0.86061532    -0.23800
C2817       C  0.57286298  0.09294104  0.85940585     0.40800
C2818       C  0.58952411  0.12133202  0.86814269    -0.26300
O2819       O  0.51283986  0.10159327  0.88930899    -0.58100
H2820       H  0.98829750  0.05046302  0.87235298     0.16400
O2821       O  0.59330494  0.08969531  0.84996087    -0.59600
H2822       H  0.61791098  0.14102595  0.86699021     0.14900
H2823       H  0.65241559  0.26218738  0.88116245     0.46700
H2824       H  0.50601613  0.08061366  0.89500330     0.42100
H2825       H  0.60206780  0.07395894  0.85356860     0.45600
H2826       H  0.55631273  0.11374768  0.91076627     0.37100
C2827       C  0.77463176  0.41081931  0.76890757    -0.27200
C2828       C  0.79384281  0.39237970  0.76721306     0.02400
C2829       C  0.78437736  0.36101245  0.77438794     0.30500
C2830       C  0.75507020  0.34784055  0.78283490    -0.19000
C2831       C  0.73551525  0.36608001  0.78435256    -0.28400
C2832       C  0.74604878  0.39830225  0.77759792     0.44500
C2833       C  0.82490236  0.40757561  0.75840639     0.05700
O2834       O  0.80347851  0.34306740  0.77314702    -0.56900
H2835       H  0.74734495  0.32321909  0.78811766     0.18700
O2836       O  0.72865046  0.41773155  0.77952245    -0.63600
H2837       H  0.78240535  0.43554274  0.76368222     0.17100
C2838       C  0.82034005  0.41131248  0.74535414     0.29400
C2839       C  0.85055373  0.42825098  0.73734259    -0.24500
C2840       C  0.88568847  0.44233818  0.74223445    -0.23800
C2841       C  0.88995124  0.43858314  0.75541825     0.40800
C2842       C  0.85968752  0.42102947  0.76330810    -0.26300
O2843       O  0.78637609  0.39779245  0.74032516    -0.58100
H2844       H  0.84639440  0.43053365  0.72730243     0.16400
O2845       O  0.92349543  0.45165124  0.76075484    -0.59600
H2846       H  0.86344592  0.41871979  0.77338837     0.14900
H2847       H  0.74767817  0.44293949  0.78137449     0.46700
H2848       H  0.78262708  0.41889528  0.73953240     0.42100
H2849       H  0.93007023  0.47602806  0.76400523     0.45600
H2850       H  0.79017675  0.32405119  0.76669004     0.37100
C2851       C  0.57384122  0.36658412  0.77783750    -0.27200
C2852       C  0.59245526  0.38727568  0.76718908     0.02400
C2853       C  0.62760193  0.39420032  0.76460474     0.30500
C2854       C  0.64408516  0.38109877  0.77279028    -0.19000
C2855       C  0.62639792  0.36173630  0.78378258    -0.28400
C2856       C  0.59027734  0.35305640  0.78596199     0.44500
C2857       C  0.57532554  0.40191320  0.75879825     0.05700
O2858       O  0.64644027  0.41478310  0.75431319    -0.56900
H2859       H  0.67067527  0.38596527  0.77039477     0.18700
O2860       O  0.57038304  0.33040553  0.79567711    -0.63600
H2861       H  0.54634048  0.36040890  0.77969825     0.17100
C2862       C  0.56592217  0.38942868  0.74624141     0.29400
C2863       C  0.55218977  0.40567035  0.73812381    -0.24500
C2864       C  0.54754376  0.43436890  0.74241500    -0.23800
C2865       C  0.55670476  0.44644168  0.75513306     0.40800
C2866       C  0.57039117  0.43011886  0.76318963    -0.26300
O2867       O  0.57062636  0.36176720  0.74177635    -0.58100
H2868       H  0.54520112  0.39578836  0.72846365     0.16400
O2869       O  0.55386936  0.97511889  0.75965803    -0.59600
H2870       H  0.57808995  0.44014883  0.77281339     0.14900
H2871       H  0.56326709  0.30570422  0.79264262     0.46700
H2872       H  0.54918308  0.33929907  0.74480176     0.42100
H2873       H  0.53063171  0.96421228  0.76437050     0.45600
H2874       H  0.64536772  0.39728915  0.74785548     0.37100
C2875       C  0.63033422  0.20766741  0.77677330    -0.27200
C2876       C  0.60143955  0.20109921  0.76873389     0.02400
C2877       C  0.58637745  0.22396834  0.76934727     0.30500
C2878       C  0.60110313  0.25360605  0.77762072    -0.19000
C2879       C  0.63035907  0.26041737  0.78544616    -0.28400
C2880       C  0.64475497  0.23708146  0.78513932     0.44500
C2881       C  0.58730589  0.17019257  0.75981672     0.05700
O2882       O  0.55652783  0.21671598  0.76224640    -0.56900
H2883       H  0.58971159  0.27138328  0.77793012     0.18700
O2884       O  0.67419769  0.24411775  0.79243126    -0.63600
H2885       H  0.64222160  0.19033841  0.77637633     0.17100
C2886       C  0.58501574  0.17499661  0.74666547     0.29400
C2887       C  0.57104532  0.14519830  0.73849341    -0.24500
C2888       C  0.55966616  0.11032152  0.74320003    -0.23800
C2889       C  0.56334768  0.10581417  0.75633231     0.40800
C2890       C  0.57702846  0.13561256  0.76449071    -0.26300
O2891       O  0.59672813  0.20875466  0.74167311    -0.58100
H2892       H  0.56890060  0.14944771  0.72844858     0.16400
O2893       O  0.55467075  0.07265412  0.76126605    -0.59600
H2894       H  0.57935765  0.13163608  0.77455127     0.14900
H2895       H  0.66551939  0.22372046  0.79852545     0.46700
H2896       H  0.62273298  0.21843746  0.73978635     0.42100
H2897       H  0.53032061  0.06318797  0.76508923     0.45600
H2898       H  0.56472650  0.23709884  0.75616044     0.37100
C2899       C  0.58632358  0.37630130  0.82499699    -0.27200
C2900       C  0.59711629  0.41128002  0.82037703     0.02400
C2901       C  0.62763106  0.42807685  0.81235495     0.30500
C2902       C  0.64532912  0.40936399  0.80849420    -0.19000
C2903       C  0.63301933  0.37354624  0.81237612    -0.28400
C2904       C  0.60430667  0.35760961  0.82116202     0.44500
C2905       C  0.57656731  0.43013305  0.82385832     0.05700
O2906       O  0.63942406  0.46225065  0.80774409    -0.56900
H2907       H  0.66762775  0.42219289  0.80182940     0.18700
O2908       O  0.59160416  0.32272970  0.82516341    -0.63600
H2909       H  0.56346424  0.36319020  0.83141090     0.17100
C2910       C  0.53915588  0.41445638  0.82144999     0.29400
C2911       C  0.52035284  0.43242733  0.82517285    -0.24500
C2912       C  0.53832588  0.46594118  0.83141563    -0.23800
C2913       C  0.57590724  0.48225935  0.83330924     0.40800
C2914       C  0.59469201  0.46450180  0.82952341    -0.26300
O2915       O  0.52087572  0.38181382  0.81531703    -0.58100
H2916       H  0.49139559  0.41932896  0.82376607     0.16400
O2917       O  0.59432800  0.01528378  0.83914663    -0.59600
H2918       H  0.62343235  0.47723250  0.83136640     0.14900
H2919       H  0.60526211  0.32483481  0.83304144     0.46700
H2920       H  0.50768904  0.36383086  0.82210190     0.42100
H2921       H  0.60026559  0.01037333  0.84776509     0.45600
H2922       H  0.62572660  0.45875102  0.79975856     0.37100
C2923       C  0.79779912  0.42662029  0.81357869    -0.27200
C2924       C  0.81307713  0.40792314  0.81963385     0.02400
C2925       C  0.78984064  0.37133612  0.82305442     0.30500
C2926       C  0.75333820  0.35349614  0.81922310    -0.19000
C2927       C  0.73901501  0.37204665  0.81260331    -0.28400
C2928       C  0.76105560  0.40937771  0.81056928     0.44500
C2929       C  0.85269004  0.42779517  0.82274213     0.05700
O2930       O  0.80211868  0.35332898  0.83055457    -0.56900
H2931       H  0.73664277  0.32493812  0.82109034     0.18700
O2932       O  0.74711687  0.42909124  0.80519114    -0.63600
H2933       H  0.81444387  0.45481423  0.81101577     0.17100
C2934       C  0.87525990  0.41240942  0.82104142     0.29400
C2935       C  0.91164051  0.43140901  0.82491792    -0.24500
C2936       C  0.92664958  0.46649211  0.82988188    -0.23800
C2937       C  0.90525083  0.48309197  0.83035427     0.40800
C2938       C  0.86862164  0.46363604  0.82715746    -0.26300
O2939       O  0.86219116  0.37880023  0.81574079    -0.58100
H2940       H  0.92774262  0.41818161  0.82452510     0.16400
O2941       O  0.91949237  0.51784460  0.83467113    -0.59600
H2942       H  0.85247206  0.47657683  0.82847221     0.14900
H2943       H  0.73531785  0.43470132  0.81228520     0.46700
H2944       H  0.86090781  0.38237612  0.80647534     0.42100
H2945       H  0.92361257  0.03268116  0.82714476     0.45600
H2946       H  0.79862958  0.33212484  0.82551889     0.37100
C2947       C  0.62335502  0.20849612  0.82440205    -0.27200
C2948       C  0.58684004  0.18651999  0.82104543     0.02400
C2949       C  0.56902334  0.20245342  0.81478019     0.30500
C2950       C  0.58818413  0.23897058  0.81126729    -0.19000
C2951       C  0.62534634  0.26019719  0.81374315    -0.28400
C2952       C  0.64251010  0.24514740  0.82087138     0.44500
C2953       C  0.56737414  0.14723391  0.82423973     0.05700
O2954       O  0.53329296  0.18212661  0.81149249    -0.56900
H2955       H  0.57453770  0.25016578  0.80578787     0.18700
O2956       O  0.67862751  0.26510054  0.82352813    -0.63600
H2957       H  0.63726652  0.19700849  0.82954454     0.17100
C2958       C  0.58007335  0.12387464  0.82018653     0.29400
C2959       C  0.56208546  0.08733242  0.82399672    -0.24500
C2960       C  0.53181273  0.07389285  0.83203697    -0.23800
C2961       C  0.51781311  0.09668418  0.83534392     0.40800
C2962       C  0.53577112  0.13300634  0.83157344    -0.26300
O2963       O  0.60992546  0.13652635  0.81247425    -0.58100
H2964       H  0.57306456  0.07013479  0.82131808     0.16400
O2965       O  0.48778359  0.08412441  0.84298169    -0.59600
H2966       H  0.52549427  0.15042540  0.83473600     0.14900
H2967       H  0.67986561  0.27506607  0.83216126     0.46700
H2968       H  0.62996002  0.14005505  0.81815533     0.42100
H2969       H  0.96980412  0.08737255  0.83812467     0.45600
H2970       H  0.53339603  0.17410805  0.80263883     0.37100
C2971       C  0.91982167  0.29390634  0.20113526    -0.27200
C2972       C  0.89780253  0.29715219  0.21040093     0.02400
C2973       C  0.86100732  0.27049096  0.21116965     0.30500
C2974       C  0.84666399  0.24171924  0.20260446    -0.19000
C2975       C  0.86865921  0.23865262  0.19336230    -0.28400
C2976       C  0.90561613  0.26449496  0.19276633     0.44500
C2977       C  0.91335779  0.32815774  0.21929358     0.05700
O2978       O  0.83900169  0.27189082  0.22042744    -0.56900
H2979       H  0.81832089  0.22139698  0.20327744     0.18700
O2980       O  0.92826454  0.25972303  0.18467233    -0.63600
H2981       H  0.94817031  0.31406108  0.20042455     0.17100
C2982       C  0.94531927  0.33767970  0.22605906     0.29400
C2983       C  0.95911408  0.36685338  0.23450560    -0.24500
C2984       C  0.94150045  0.38699570  0.23640453    -0.23800
C2985       C  0.90921965  0.37708242  0.22969875     0.40800
C2986       C  0.89579208  0.34827118  0.22111800    -0.26300
O2987       O  0.96242644  0.31772025  0.22487877    -0.58100
H2988       H  0.98369772  0.37356684  0.23961941     0.16400
O2989       O  0.89102552  0.39588633  0.23114133    -0.59600
H2990       H  0.87151583  0.34169213  0.21581771     0.14900
H2991       H  0.94102853  0.28225515  0.17959418     0.46700
H2992       H  0.98507805  0.33337142  0.22013869     0.42100
H2993       H  0.87140338  0.38161511  0.23731581     0.45600
H2994       H  0.84183286  0.25914525  0.22784263     0.37100
C2995       C  0.87512410  0.08333600  0.20119568    -0.27200
C2996       C  0.90129767  0.10519330  0.21014922     0.02400
C2997       C  0.91287272  0.14243213  0.21066698     0.30500
C2998       C  0.89817644  0.15723558  0.20233921    -0.19000
C2999       C  0.87220528  0.13539063  0.19336382    -0.28400
C3000       C  0.86039180  0.09816110  0.19288931     0.44500
C3001       C  0.91634103  0.08892698  0.21891668     0.05700
O3002       O  0.93823299  0.16447510  0.21936434    -0.56900
H3003       H  0.90705618  0.18586188  0.20286632     0.18700
O3004       O  0.83409498  0.07598961  0.18449095    -0.63600
H3005       H  0.86605045  0.05468012  0.20067329     0.17100
C3006       C  0.89365216  0.05979769  0.22687129     0.29400
C3007       C  0.90850072  0.04462478  0.23499692    -0.24500
C3008       C  0.94607554  0.05841269  0.23547020    -0.23800
C3009       C  0.96869844  0.08765801  0.22744947     0.40800
C3010       C  0.95375795  0.10262682  0.21930386    -0.26300
O3011       O  0.85696272  0.04623155  0.22687662    -0.58100
H3012       H  0.89053189  0.02228550  0.24105808     0.16400
O3013       O  0.00545068  0.10169833  0.22735840    -0.59600
H3014       H  0.97147357  0.12480767  0.21313378     0.14900
H3015       H  0.81090251  0.06796681  0.18901442     0.46700
H3016       H  0.85279615  0.06184071  0.23285029     0.42100
H3017       H  0.00990148  0.08708679  0.22101546     0.45600
H3018       H  0.92450142  0.16175957  0.22730466     0.37100
C3019       C  0.65650213  0.04513539  0.22186592    -0.27200
C3020       C  0.67721661  0.08276140  0.22026231     0.02400
C3021       C  0.66780545  0.10522052  0.22721335     0.30500
C3022       C  0.63723549  0.09004270  0.23503248    -0.19000
C3023       C  0.61595851  0.05237415  0.23645614    -0.28400
C3024       C  0.62653093  0.02991784  0.23003461     0.44500
C3025       C  0.70770481  0.09842729  0.21102538     0.05700
O3026       O  0.68827620  0.14216737  0.22642229    -0.56900
H3027       H  0.63032061  0.10800543  0.24005976     0.18700
O3028       O  0.60708131  0.99301631  0.23125183    -0.63600
H3029       H  0.66303833  0.02732805  0.21655475     0.17100
C3030       C  0.73456749  0.08827768  0.21098334     0.29400
C3031       C  0.76350571  0.10453373  0.20240987    -0.24500
C3032       C  0.76593221  0.13054491  0.19369767    -0.23800
C3033       C  0.73930037  0.14082008  0.19371583     0.40800
C3034       C  0.71026328  0.12446999  0.20224445    -0.26300
O3035       O  0.73385062  0.06405306  0.21973449    -0.58100
H3036       H  0.78437480  0.09706954  0.20265082     0.16400
O3037       O  0.74294585  0.16860036  0.18609250    -0.59600
H3038       H  0.68983720  0.13254234  0.20208141     0.14900
H3039       H  0.61947885  0.98715559  0.23804055     0.46700
H3040       H  0.72775875  0.04184394  0.21482785     0.42100
H3041       H  0.72022624  0.15880611  0.18113786     0.45600
H3042       H  0.70854965  0.14896133  0.23242826     0.37100
C3043       C  0.57608339  0.39170119  0.33299861    -0.27200
C3044       C  0.60298496  0.42151034  0.32639706     0.02400
C3045       C  0.63848789  0.43941802  0.33107395     0.30500
C3046       C  0.64701213  0.42664710  0.34199768    -0.19000
C3047       C  0.62048157  0.39581771  0.34841516    -0.28400
C3048       C  0.58451560  0.37873318  0.34392583     0.44500
C3049       C  0.59316212  0.43496898  0.31506740     0.05700
O3050       O  0.66515295  0.46911811  0.32491851    -0.56900
H3051       H  0.67484048  0.44033389  0.34517630     0.18700
O3052       O  0.55735051  0.34956198  0.35014568    -0.63600
H3053       H  0.54838524  0.37847985  0.32967446     0.17100
C3054       C  0.57802854  0.41303075  0.30426408     0.29400
C3055       C  0.56550642  0.42530476  0.29418247    -0.24500
C3056       C  0.56718114  0.45898708  0.29494901    -0.23800
C3057       C  0.58403127  0.48154967  0.30553719     0.40800
C3058       C  0.59706215  0.46952225  0.31543403    -0.26300
O3059       O  0.57534317  0.37962458  0.30352997    -0.58100
H3060       H  0.55280018  0.40772842  0.28610223     0.16400
O3061       O  0.58771596  0.51539574  0.30632916    -0.59600
H3062       H  0.60893400  0.48669079  0.32367477     0.14900
H3063       H  0.55344839  0.32811286  0.34517468     0.46700
H3064       H  0.54984945  0.36210521  0.30568874     0.42100
H3065       H  0.06878563  0.51295912  0.31237508     0.45600
H3066       H  0.67494971  0.45928603  0.31845101     0.37100
C3067       C  0.56929650  0.20777351  0.32812150    -0.27200
C3068       C  0.58808050  0.19046226  0.32391484     0.02400
C3069       C  0.61811309  0.19476948  0.33089075     0.30500
C3070       C  0.62889941  0.21611888  0.34189167    -0.19000
C3071       C  0.60986490  0.23322078  0.34624610    -0.28400
C3072       C  0.57957642  0.22859411  0.33921381     0.44500
C3073       C  0.57429499  0.16566956  0.31286081     0.05700
O3074       O  0.63686439  0.17787595  0.32712736    -0.56900
H3075       H  0.65238648  0.21936246  0.34698780     0.18700
O3076       O  0.56033475  0.24510804  0.34282094    -0.63600
H3077       H  0.54629448  0.20494866  0.32279850     0.17100
C3078       C  0.53848497  0.13679960  0.31288626     0.29400
C3079       C  0.52644073  0.11146683  0.30307604    -0.24500
C3080       C  0.54947768  0.11433900  0.29304340    -0.23800
C3081       C  0.58493795  0.14391329  0.29270304     0.40800
C3082       C  0.59711821  0.16947181  0.30257843    -0.26300
O3083       O  0.51588466  0.13155719  0.32296934    -0.58100
H3084       H  0.49919006  0.08865864  0.30355258     0.16400
O3085       O  0.60840768  0.14695989  0.28320175    -0.59600
H3086       H  0.62470170  0.19169321  0.30240339     0.14900
H3087       H  0.53982388  0.22676531  0.34792840     0.46700
H3088       H  0.49844247  0.13875767  0.31982855     0.42100
H3089       H  0.62141892  0.13481209  0.28653468     0.45600
H3090       H  0.62458909  0.15395351  0.33138744     0.37100
C3091       C  0.80772797  0.36817863  0.33310401    -0.27200
C3092       C  0.82210855  0.40307442  0.32808778     0.02400
C3093       C  0.81388058  0.42783960  0.33392003     0.30500
C3094       C  0.79038601  0.41710347  0.34434636    -0.19000
C3095       C  0.77471448  0.38164532  0.34915150    -0.28400
C3096       C  0.78409053  0.35724663  0.34348630     0.44500
C3097       C  0.84595737  0.41348398  0.31682738     0.05700
O3098       O  0.82837361  0.46250274  0.32940824    -0.56900
H3099       H  0.78379176  0.43644113  0.34846701     0.18700
O3100       O  0.76990666  0.32243692  0.34781890    -0.63600
H3101       H  0.81411326  0.34897158  0.32872999     0.17100
C3102       C  0.87852364  0.41280801  0.31729289     0.29400
C3103       C  0.90196672  0.42499639  0.30689721    -0.24500
C3104       C  0.89345660  0.43783818  0.29585217    -0.23800
C3105       C  0.85995814  0.43678497  0.29513369     0.40800
C3106       C  0.83648027  0.42473238  0.30562633    -0.26300
O3107       O  0.88875152  0.40256482  0.32818183    -0.58100
H3108       H  0.92755005  0.42545121  0.30765094     0.16400
O3109       O  0.85058901  0.44885870  0.28450385    -0.59600
H3110       H  0.81113636  0.42482945  0.30512838     0.14900
H3111       H  0.74894616  0.30766063  0.34221991     0.46700
H3112       H  0.88416081  0.37773143  0.32648551     0.42100
H3113       H  0.85925250  0.97494276  0.28614167     0.45600
H3114       H  0.85233319  0.47617948  0.33355709     0.37100
C3115       C  0.79615108  0.04676460  0.44203211    -0.27200
C3116       C  0.76664892  0.04010868  0.43431259     0.02400
C3117       C  0.75136068  0.06268983  0.43531201     0.30500
C3118       C  0.76610950  0.09191682  0.44378361    -0.19000
C3119       C  0.79570328  0.09860400  0.45141495    -0.28400
C3120       C  0.81082151  0.07592970  0.45049573     0.44500
C3121       C  0.75162423  0.00892411  0.42550942     0.05700
O3122       O  0.72119041  0.05546244  0.42843149    -0.56900
H3123       H  0.75436037  0.10932582  0.44445096     0.18700
O3124       O  0.84014794  0.08231337  0.45772304    -0.63600
H3125       H  0.80808383  0.02951176  0.44136614     0.17100
C3126       C  0.75156204  0.51366586  0.41227874     0.29400
C3127       C  0.73739464  0.48353355  0.40420091    -0.24500
C3128       C  0.72339269  0.44839565  0.40914672    -0.23800
C3129       C  0.72432304  0.44405699  0.42246668     0.40800
C3130       C  0.73826816  0.47416601  0.43048555    -0.26300
O3131       O  0.76554061  0.54757375  0.40712202    -0.58100
H3132       H  0.73730316  0.48773916  0.39404428     0.16400
O3133       O  0.71168234  0.41055037  0.42782414    -0.59600
H3134       H  0.73851354  0.97021861  0.44063943     0.14900
H3135       H  0.86154464  0.09864768  0.45253190     0.46700
H3136       H  0.79189575  0.55680531  0.40638002     0.42100
H3137       H  0.73290951  0.40690232  0.42819185     0.45600
H3138       H  0.72980206  0.07423590  0.42170229     0.37100
C3139       C  0.52455761  0.25774183  0.42938404    -0.27200
C3140       C  0.99042705  0.24831722  0.42448062     0.02400
C3141       C  0.48686890  0.25405784  0.41157252     0.30500
C3142       C  0.51733151  0.26906664  0.40362523    -0.19000
C3143       C  0.55167031  0.27848125  0.40844259    -0.28400
C3144       C  0.55499572  0.27267010  0.42150653     0.44500
C3145       C  0.95902653  0.23268857  0.43311516     0.05700
O3146       O  0.45391533  0.24641646  0.40676692    -0.56900
H3147       H  0.51405745  0.27368590  0.39370893     0.18700
O3148       O  0.58765101  0.28058005  0.42666206    -0.63600
H3149       H  0.02742305  0.25341898  0.43933743     0.17100
C3150       C  0.93170045  0.19641440  0.43190098     0.29400
C3151       C  0.90305059  0.18167927  0.44058640    -0.24500
C3152       C  0.90114618  0.20282261  0.45046223    -0.23800
C3153       C  0.92795274  0.23950871  0.45141101     0.40800
C3154       C  0.95704751  0.25398996  0.44291615    -0.26300
O3155       O  0.93362720  0.17488297  0.42257128    -0.58100
H3156       H  0.88231226  0.15359899  0.43963323     0.16400
O3157       O  0.92572231  0.26156900  0.46044211    -0.59600
H3158       H  0.97789445  0.28205907  0.44384929     0.14900
H3159       H  0.59704240  0.30466290  0.43068656     0.46700
H3160       H  0.91483796  0.17139575  0.41629185     0.42100
H3161       H  0.90813346  0.26823157  0.45704029     0.45600
H3162       H  0.94616463  0.22463604  0.40119993     0.37100
C3163       C  0.74880933  0.21144669  0.44368197    -0.27200
C3164       C  0.77135921  0.23656560  0.43456168     0.02400
C3165       C  0.80814062  0.24670251  0.43404524     0.30500
C3166       C  0.82194915  0.23157766  0.44261546    -0.19000
C3167       C  0.79932465  0.20613987  0.45164795    -0.28400
C3168       C  0.76244182  0.19574803  0.45206797     0.44500
C3169       C  0.75597231  0.25193637  0.42566075     0.05700
O3170       O  0.83082526  0.27194374  0.42540730    -0.56900
H3171       H  0.85033642  0.23948937  0.44215616     0.18700
O3172       O  0.73935713  0.16956345  0.46035043    -0.63600
H3173       H  0.72037344  0.20335820  0.44406945     0.17100
C3174       C  0.75151405  0.24249790  0.41271183     0.29400
C3175       C  0.73528094  0.25624833  0.40457229    -0.24500
C3176       C  0.72312875  0.27937210  0.40921164    -0.23800
C3177       C  0.72832639  0.28915385  0.42224414     0.40800
C3178       C  0.74430017  0.27514723  0.43032807    -0.26300
O3179       O  0.76246376  0.21945078  0.40797973    -0.58100
H3180       H  0.73184270  0.24841214  0.39464644     0.16400
O3181       O  0.71775731  0.31219424  0.42727080    -0.59600
H3182       H  0.74768342  0.28250144  0.44030964     0.14900
H3183       H  0.72975064  0.14649917  0.45559874     0.46700
H3184       H  0.74127395  0.19488687  0.40898311     0.42100
H3185       H  0.73920590  0.33668606  0.42647765     0.45600
H3186       H  0.83395840  0.25785860  0.41849620     0.37100
Zn3187     Zn  0.68779588  0.80641178  0.37385955     1.49700
Zn3188     Zn  0.66534160  0.83502806  0.39808219     1.49400
Zn3189     Zn  0.69443712  0.88500724  0.37391676     1.49100
Zn3190     Zn  0.61632069  0.81321907  0.37355251     1.49500
O3191       O  0.66599761  0.83492896  0.37975649    -1.83700
O3192       O  0.70507345  0.78783432  0.38850288    -0.74300
O3193       O  0.68970543  0.88510800  0.40512571    -0.74200
O3194       O  0.73603334  0.89154103  0.36297467    -0.73700
O3195       O  0.69130738  0.81090710  0.40507872    -0.74400
O3196       O  0.73042738  0.83697659  0.36280952    -0.74000
O3197       O  0.71250305  0.92122239  0.38844303    -0.74500
O3198       O  0.60965975  0.84843480  0.36289609    -0.73900
O3199       O  0.61496951  0.80936849  0.40478987    -0.74700
O3200       O  0.66453669  0.89654027  0.36229918    -0.74100
O3201       O  0.57948367  0.79421628  0.38786605    -0.74500
O3202       O  0.60638461  0.77350881  0.36119072    -0.74500
O3203       O  0.65452480  0.76651690  0.36194735    -0.74200
C3204       C  0.70548558  0.79327535  0.40045287     0.77500
C3205       C  0.70775900  0.91663925  0.40042408     0.78000
C3206       C  0.74603577  0.86960286  0.35901702     0.77000
C3207       C  0.63180030  0.87971084  0.35863304     0.77400
C3208       C  0.58362573  0.79477291  0.39988967     0.78500
C3209       C  0.62392112  0.75844901  0.35722304     0.77600
Zn3210     Zn  0.94984787  0.97647874  0.25930149     1.49700
Zn3211     Zn  0.52756743  0.55050766  0.25819112     1.49400
Zn3212     Zn  0.00185353  0.00312661  0.28249904     1.49100
Zn3213     Zn  0.52459101  0.97359751  0.25915114     1.49500
O3214       O  0.00083127  0.00083726  0.26443207    -1.83700
O3215       O  0.94040578  0.51044389  0.24870729    -0.74300
O3216       O  0.54515360  0.58799680  0.27247395    -0.74200
O3217       O  0.95435434  0.97169331  0.29008094    -0.73700
O3218       O  0.99475852  0.55938337  0.24690468    -0.74400
O3219       O  0.91476333  0.95691728  0.27444355    -0.74000
O3220       O  0.51866186  0.55212779  0.28899532    -0.74500
O3221       O  0.54415252  0.95826909  0.27411380    -0.73900
O3222       O  0.57069899  0.55802498  0.24789761    -0.74700
O3223       O  0.53433557  0.98768545  0.28958972    -0.74100
O3224       O  0.56744889  0.50438432  0.24795060    -0.74500
O3225       O  0.99004967  0.93035292  0.24893021    -0.74500
O3226       O  0.93986274  0.93406158  0.24817981    -0.74200
C3227       C  0.96121197  0.54190417  0.24417911     0.77500
C3228       C  0.53716922  0.58345758  0.28426585     0.78000
C3229       C  0.92201703  0.95616319  0.28616577     0.77000
C3230       C  0.54788149  0.96892332  0.28562135     0.77400
C3231       C  0.58294580  0.53738608  0.24451560     0.78500
C3232       C  0.95784976  0.91868727  0.24501770     0.77600
C3233       C  0.66589014  0.83319628  0.81184498     0.45900
H3234       H  0.66621767  0.83448910  0.82239518    -0.03200
C3235       C  0.66533054  0.83048130  0.78700937     0.45900
H3236       H  0.66516511  0.82896567  0.77645043    -0.03200
C3237       C  0.64658882  0.85192598  0.80545474    -0.16800
C3238       C  0.70407058  0.85185590  0.80567772    -0.16600
C3239       C  0.64644753  0.79419845  0.80632724    -0.17000
C3240       C  0.64564488  0.84928054  0.79237118    -0.17000
C3241       C  0.70319597  0.85036293  0.79264710    -0.16500
C3242       C  0.64699077  0.79350996  0.79328355    -0.16800
C3243       C  0.99961814  0.50083297  0.83212683     0.45900
H3244       H  0.00112059  0.50209968  0.82157951    -0.03200
C3245       C  0.99592394  0.49804068  0.85693429     0.45900
H3246       H  0.99385339  0.49638284  0.86747684    -0.03200
C3247       C  0.51822443  0.53858832  0.83872101    -0.16800
C3248       C  0.96053140  0.98194122  0.83746220    -0.16600
C3249       C  0.51733750  0.98016319  0.83830926    -0.17000
C3250       C  0.51715735  0.53644912  0.85179199    -0.17000
C3251       C  0.95927246  0.98104045  0.85046365    -0.16500
C3252       C  0.51471593  0.97873178  0.85135428    -0.16800
C3253       C  0.66637003  0.83679837  0.50005672     0.45900
H3254       H  0.66719291  0.83809753  0.48950646    -0.03200
C3255       C  0.66442905  0.83363214  0.52487982     0.45900
H3256       H  0.66349178  0.83229623  0.53544410    -0.03200
C3257       C  0.68667367  0.81827604  0.50587570    -0.16800
C3258       C  0.68344532  0.87440186  0.50666275    -0.16600
C3259       C  0.62754273  0.81547733  0.50571587    -0.17000
C3260       C  0.68487912  0.81649708  0.51892268    -0.17000
C3261       C  0.68263058  0.87207207  0.51971047    -0.16500
C3262       C  0.62721711  0.81431808  0.51876796    -0.16800
C3263       C  0.83164625  0.66859466  0.45386029     0.45900
H3264       H  0.83077104  0.66835122  0.44328571    -0.03200
C3265       C  0.83335103  0.66898302  0.47869082     0.45900
H3266       H  0.83400094  0.66910214  0.48924792    -0.03200
C3267       C  0.81434837  0.68877239  0.45985278    -0.16800
C3268       C  0.81218887  0.63102383  0.45968041    -0.16600
C3269       C  0.86975304  0.68656564  0.45922378    -0.17000
C3270       C  0.81506744  0.68959626  0.47291354    -0.17000
C3271       C  0.81234714  0.63046204  0.47273696    -0.16500
C3272       C  0.87144357  0.68664637  0.47230298    -0.16800
Zn3273     Zn  0.83188459  0.66650073  0.58004882     1.49700
Zn3274     Zn  0.80290194  0.68820757  0.60403273     1.49400
Zn3275     Zn  0.81426009  0.61910441  0.60497572     1.49100
Zn3276     Zn  0.88276702  0.69843393  0.60383912     1.49500
O3277       O  0.83290313  0.66806980  0.59835750    -1.83700
O3278       O  0.80591737  0.69014164  0.57263049    -0.74300
O3279       O  0.76371195  0.65387218  0.61586450    -0.74200
O3280       O  0.79415623  0.58124887  0.59101997    -0.73700
O3281       O  0.78141794  0.70164833  0.58930329    -0.74400
O3282       O  0.80631454  0.61607745  0.57402760    -0.74000
O3283       O  0.77468315  0.60820112  0.61748307    -0.74500
O3284       O  0.89717639  0.67157753  0.61599671    -0.73900
O3285       O  0.83266004  0.73276056  0.61445383    -0.74700
O3286       O  0.85213529  0.61492215  0.61508935    -0.74100
O3287       O  0.88850404  0.74152436  0.61346902    -0.74500
O3288       O  0.91755221  0.71420339  0.58909959    -0.74500
O3289       O  0.88116536  0.68966832  0.57261524    -0.74200
C3290       C  0.78615726  0.70182248  0.57732735     0.77500
C3291       C  0.75729189  0.62400180  0.62082676     0.78000
C3292       C  0.79278932  0.58496905  0.57903798     0.77000
C3293       C  0.88282180  0.63863140  0.61936794     0.77400
C3294       C  0.86593580  0.75061913  0.61746423     0.78500
C3295       C  0.91273606  0.70784359  0.57722198     0.77600
Zn3296     Zn  0.95005647  0.98036766  0.70726159     1.49700
Zn3297     Zn  0.51952860  0.96927685  0.70722056     1.49400
Zn3298     Zn  0.52939937  0.54920614  0.70768829     1.49100
Zn3299     Zn  0.49878023  0.49821464  0.73160627     1.49500
O3300       O  0.49950558  0.49923242  0.71330366    -1.83700
O3301       O  0.93808219  0.94022038  0.69496040    -0.74300
O3302       O  0.56426528  0.49943838  0.69680820    -0.74200
O3303       O  0.00163674  0.56331012  0.69570134    -0.73700
O3304       O  0.98493425  0.93094927  0.69526050    -0.74400
O3305       O  0.94542449  0.51748833  0.69675329    -0.74000
O3306       O  0.57177858  0.55479953  0.69758478    -0.74500
O3307       O  0.52481583  0.54743771  0.73906855    -0.73900
O3308       O  0.53304321  0.94669731  0.72167884    -0.74700
O3309       O  0.54738039  0.58408216  0.72248220    -0.74100
O3310       O  0.52169430  0.97125789  0.73836765    -0.74500
O3311       O  0.94880101  0.97337970  0.73833011    -0.74500
O3312       O  0.91310081  0.96085367  0.72160671    -0.74200
C3313       C  0.95417261  0.92375288  0.69093650     0.77500
C3314       C  0.58148175  0.53263977  0.69363434     0.78000
C3315       C  0.96866617  0.54816548  0.69229412     0.77000
C3316       C  0.54315548  0.57901107  0.73445426     0.77400
C3317       C  0.53336044  0.95157223  0.73365515     0.78500
C3318       C  0.91740828  0.95967025  0.73356402     0.77600
C3319       C  0.83543701  0.66889841  0.16603923     0.45900
H3320       H  0.83531323  0.66881811  0.15547887    -0.03200
C3321       C  0.83568419  0.66888121  0.19088613     0.45900
H3322       H  0.83584874  0.66891285  0.20146619    -0.03200
C3323       C  0.79710820  0.64771565  0.17218957    -0.16800
C3324       C  0.85693782  0.65184585  0.17204094    -0.16600
C3325       C  0.85256734  0.70731480  0.17201844    -0.17000
C3326       C  0.79795506  0.64838333  0.18525872    -0.17000
C3327       C  0.85603221  0.65154004  0.18509685    -0.16500
C3328       C  0.85288092  0.70654111  0.18507775    -0.16800
C3329       C  0.00253473  0.50262639  0.12018730     0.45900
H3330       H  0.00226952  0.50251390  0.10960603    -0.03200
C3331       C  0.00286186  0.50274859  0.14502828     0.45900
H3332       H  0.50297695  0.50285741  0.15561082    -0.03200
C3333       C  0.98509496  0.52288433  0.12596716    -0.16800
C3334       C  0.98234397  0.96507072  0.12600794    -0.16600
C3335       C  0.54029777  0.52002528  0.12583325    -0.17000
C3336       C  0.98545185  0.52386881  0.13902926    -0.17000
C3337       C  0.98164010  0.96426241  0.13906746    -0.16500
C3338       C  0.54119478  0.52003777  0.13891634    -0.16800
Zn3339     Zn  0.71778585  0.86176143  0.93611761     1.49700
Zn3340     Zn  0.66495659  0.83187087  0.91223136     1.49400
Zn3341     Zn  0.64412664  0.78443553  0.93721390     1.49100
Zn3342     Zn  0.64202917  0.85896257  0.93654217     1.49500
O3343       O  0.66724215  0.83417465  0.93060891    -1.83700
O3344       O  0.75180016  0.87516652  0.92117835    -0.74300
O3345       O  0.64140220  0.78101383  0.90608435    -0.74200
O3346       O  0.67823304  0.77894319  0.94893932    -0.73700
O3347       O  0.71433369  0.85566485  0.90474264    -0.74400
O3348       O  0.72845564  0.83233243  0.94836600    -0.74000
O3349       O  0.62823603  0.74651554  0.92319796    -0.74500
O3350       O  0.60313377  0.82738299  0.94867249    -0.73900
O3351       O  0.63760054  0.85481144  0.90504858    -0.74700
O3352       O  0.60182424  0.77454061  0.94846277    -0.74100
O3353       O  0.62058401  0.87339332  0.92205940    -0.74500
O3354       O  0.67436220  0.90217687  0.94718491    -0.74500
O3355       O  0.72829695  0.90630433  0.94630947    -0.74200
C3356       C  0.74617040  0.87084531  0.90923555     0.77500
C3357       C  0.62892459  0.75000947  0.91113677     0.78000
C3358       C  0.71022214  0.80038787  0.95275720     0.77000
C3359       C  0.59043922  0.79515052  0.95265834     0.77400
C3360       C  0.62117250  0.86987611  0.91003398     0.78500
C3361       C  0.70732534  0.91718330  0.95055110     0.77600
Zn3362     Zn  0.86098240  0.64461789  0.04044029     1.49700
Zn3363     Zn  0.78657160  0.64729255  0.03996910     1.49400
Zn3364     Zn  0.83543147  0.66981217  0.06476277     1.49100
Zn3365     Zn  0.86252304  0.72063541  0.04100749     1.49500
O3366       O  0.83622657  0.67034809  0.04641363    -1.83700
O3367       O  0.82906172  0.60430516  0.02841120    -0.74300
O3368       O  0.74990270  0.62616172  0.05437974    -0.74200
O3369       O  0.86192300  0.64641164  0.07182451    -0.73700
O3370       O  0.77889868  0.60793527  0.02754055    -0.74400
O3371       O  0.87720056  0.62518820  0.05510711    -0.74000
O3372       O  0.78536791  0.64242766  0.07132505    -0.74500
O3373       O  0.87860909  0.75587752  0.05554807    -0.73900
O3374       O  0.77779282  0.68264839  0.02979691    -0.74700
O3375       O  0.85704575  0.71922594  0.07210641    -0.74100
O3376       O  0.83191598  0.73185526  0.02986717    -0.74500
O3377       O  0.90464679  0.72985380  0.03018365    -0.74500
O3378       O  0.90455659  0.67766698  0.02989944    -0.74200
C3379       C  0.79783355  0.59406268  0.02379243     0.77500
C3380       C  0.75407629  0.62670289  0.06641177     0.78000
C3381       C  0.87630864  0.62909872  0.06711039     0.77000
C3382       C  0.87346803  0.75090745  0.06747530     0.77400
C3383       C  0.79934876  0.71486697  0.02612193     0.78500
C3384       C  0.91763589  0.71034573  0.02631776     0.77600
C3385       C  0.80016352  0.77125544  0.99819985    -0.27200
C3386       C  0.76318210  0.75832348  0.99638315     0.02400
C3387       C  0.73822262  0.73339260  0.00518939     0.30500
C3388       C  0.75026184  0.72014177  0.01510180    -0.19000
C3389       C  0.78723890  0.73226487  0.01666114    -0.28400
C3390       C  0.81232928  0.75903319  0.00833240     0.44500
C3391       C  0.75090066  0.76938164  0.98490117     0.05700
O3392       O  0.70192257  0.72122556  0.00404396    -0.56900
H3393       H  0.73058160  0.69999924  0.02148265     0.18700
O3394       O  0.84872563  0.77157359  0.00939720    -0.63600
H3395       H  0.81978262  0.78991838  0.99145539     0.17100
C3396       C  0.76672907  0.80594621  0.98124360     0.29400
C3397       C  0.75415252  0.81542042  0.97044708    -0.24500
C3398       C  0.72576783  0.78892654  0.96312411    -0.23800
C3399       C  0.71084342  0.75225714  0.96655844     0.40800
C3400       C  0.72353190  0.74280437  0.97730761    -0.26300
O3401       O  0.79300945  0.83276904  0.98856418    -0.58100
H3402       H  0.76585982  0.84381659  0.96809896     0.16400
O3403       O  0.68345741  0.72538129  0.95962253    -0.59600
H3404       H  0.71185237  0.71445925  0.97972456     0.14900
H3405       H  0.85822436  0.79413430  0.01445299     0.46700
H3406       H  0.81556230  0.84247347  0.98347983     0.42100
H3407       H  0.69569930  0.71932996  0.95280612     0.45600
H3408       H  0.69809299  0.73998627  0.00818862     0.37100
C3409       C  0.71038398  0.96884430  0.98030322    -0.27200
C3410       C  0.74683482  0.99579085  0.98076421     0.02400
C3411       C  0.77021470  0.99788112  0.97087389     0.30500
C3412       C  0.75709419  0.97275132  0.96086577    -0.19000
C3413       C  0.72052599  0.94573337  0.96043112    -0.28400
C3414       C  0.69717856  0.94401543  0.97030157     0.44500
C3415       C  0.75982860  0.52086055  0.99181103     0.05700
O3416       O  0.80579711  0.52426494  0.97096737    -0.56900
H3417       H  0.77553401  0.97432628  0.95345501     0.18700
O3418       O  0.66164800  0.91716007  0.97059280    -0.63600
H3419       H  0.69218707  0.96639128  0.98794173     0.17100
C3420       C  0.74303127  0.54095621  0.99522633     0.29400
C3421       C  0.75510713  0.56379672  0.00583150    -0.24500
C3422       C  0.78391769  0.56706168  0.01330285    -0.23800
C3423       C  0.80032036  0.54634488  0.00998506     0.40800
C3424       C  0.78832512  0.52364297  0.99930165    -0.26300
O3425       O  0.71586161  0.53972059  0.98788411    -0.58100
H3426       H  0.74229365  0.57967852  0.00800211     0.16400
O3427       O  0.82823175  0.54817142  0.01702209    -0.59600
H3428       H  0.80108381  0.50782551  0.99693348     0.14900
H3429       H  0.66159685  0.89664688  0.97507222     0.46700
H3430       H  0.69337914  0.52546446  0.99288260     0.42100
H3431       H  0.81653555  0.52910771  0.02359779     0.45600
H3432       H  0.80655699  0.54519453  0.96655232     0.37100
C3433       C  0.51540523  0.73530153  0.97549519    -0.27200
C3434       C  0.51915404  0.76060378  0.98478696     0.02400
C3435       C  0.54557295  0.79711755  0.98327781     0.30500
C3436       C  0.56773854  0.80798675  0.97252034    -0.19000
C3437       C  0.56415715  0.78278194  0.96319096    -0.28400
C3438       C  0.53768778  0.74618243  0.96471752     0.44500
C3439       C  0.99461515  0.74906140  0.99585119     0.05700
O3440       O  0.55099400  0.82194175  0.99258260    -0.56900
H3441       H  0.58858718  0.83609899  0.97168382     0.18700
O3442       O  0.53329964  0.72093287  0.95574560    -0.63600
H3443       H  0.99490661  0.70723307  0.97657918     0.17100
C3444       C  0.97121356  0.76298855  0.99779230     0.29400
C3445       C  0.94777548  0.75149320  0.00818505    -0.24500
C3446       C  0.94645540  0.72527419  0.01660617    -0.23800
C3447       C  0.97016803  0.71152849  0.01472258     0.40800
C3448       C  0.99404063  0.72345644  0.00436906    -0.26300
O3449       O  0.97019075  0.78694880  0.98932593    -0.58100
H3450       H  0.92934533  0.76193740  0.00929078     0.16400
O3451       O  0.96994928  0.68619053  0.02281434    -0.59600
H3452       H  0.51203431  0.71247000  0.00293691     0.14900
H3453       H  0.51680405  0.72188273  0.94931420     0.46700
H3454       H  0.95233734  0.77173440  0.98278745     0.42100
H3455       H  0.98632339  0.70027465  0.02987239     0.45600
H3456       H  0.54212942  0.83758956  0.98895240     0.37100
C3457       C  0.95811396  0.87696078  0.10961711    -0.27200
C3458       C  0.93180465  0.87424948  0.10099344     0.02400
C3459       C  0.92181360  0.90112904  0.10077020     0.30500
C3460       C  0.93826800  0.93040028  0.10912661    -0.19000
C3461       C  0.96463137  0.93312870  0.11769243    -0.28400
C3462       C  0.97487162  0.90645055  0.11784191     0.44500
C3463       C  0.91513831  0.84311113  0.09230154     0.05700
O3464       O  0.89508518  0.89818789  0.09277096    -0.56900
H3465       H  0.93032778  0.95094967  0.10897794     0.18700
O3466       O  0.00154176  0.90925159  0.12582807    -0.63600
H3467       H  0.96611095  0.85645918  0.10978594     0.17100
C3468       C  0.91906573  0.84782450  0.07904447     0.29400
C3469       C  0.90492923  0.81763972  0.07106008    -0.24500
C3470       C  0.88685363  0.78242850  0.07612575    -0.23800
C3471       C  0.88218590  0.77798962  0.08946148     0.40800
C3472       C  0.89663238  0.80820863  0.09739833    -0.26300
O3473       O  0.93737163  0.88177114  0.07381388    -0.58100
H3474       H  0.90864961  0.82190492  0.06088524     0.16400
O3475       O  0.86424125  0.74433342  0.09492276    -0.59600
H3476       H  0.89346080  0.80439999  0.10761110     0.14900
H3477       H  0.02456743  0.92557032  0.12141173     0.46700
H3478       H  0.96328613  0.88883157  0.07429519     0.42100
H3479       H  0.83874999  0.73866585  0.09566687     0.45600
H3480       H  0.90750194  0.91748829  0.08631655     0.37100
C3481       C  0.90790694  0.60297426  0.09708135    -0.27200
C3482       C  0.92292295  0.58302464  0.09198800     0.02400
C3483       C  0.92220660  0.57769880  0.07877630     0.30500
C3484       C  0.90687156  0.59271669  0.07078754    -0.19000
C3485       C  0.89214019  0.61323546  0.07580748    -0.28400
C3486       C  0.89255828  0.61800400  0.08915970     0.44500
C3487       C  0.93898693  0.56769076  0.10064087     0.05700
O3488       O  0.93508707  0.55660332  0.07367724    -0.56900
H3489       H  0.90644142  0.58810827  0.06063907     0.18700
O3490       O  0.87859156  0.63771336  0.09462232    -0.63600
H3491       H  0.90829486  0.60709312  0.10727068     0.17100
C3492       C  0.97621138  0.57959564  0.10025805     0.29400
C3493       C  0.99093168  0.56515958  0.10874824    -0.24500
C3494       C  0.96889315  0.53893545  0.11764894    -0.23800
C3495       C  0.93159222  0.52674483  0.11796543     0.40800
C3496       C  0.91690011  0.54136130  0.10951837    -0.26300
O3497       O  0.99847087  0.60622930  0.09193219    -0.58100
H3498       H  0.01965086  0.57447833  0.10840757     0.16400
O3499       O  0.90920268  0.99923290  0.12599853    -0.59600
H3500       H  0.88811897  0.53176837  0.10976138     0.14900
H3501       H  0.85336038  0.61972742  0.09694575     0.46700
H3502       H  0.00627942  0.59412000  0.08563624     0.42100
H3503       H  0.89787559  0.00955105  0.13161895     0.45600
H3504       H  0.95740454  0.57352233  0.06900561     0.37100
C3505       C  0.69583500  0.59065934  0.09612962    -0.27200
C3506       C  0.66135720  0.57914499  0.09121328     0.02400
C3507       C  0.65711910  0.58250882  0.07811481     0.30500
C3508       C  0.68742244  0.59760061  0.07009816    -0.19000
C3509       C  0.72219227  0.60934838  0.07497656    -0.28400
C3510       C  0.72607594  0.60536099  0.08816330     0.44500
C3511       C  0.63015421  0.56401542  0.09996016     0.05700
O3512       O  0.62371113  0.57279118  0.07320970    -0.56900
H3513       H  0.68367409  0.60064720  0.06007997     0.18700
O3514       O  0.75927257  0.61607759  0.09346085    -0.63600
H3515       H  0.69927450  0.58805495  0.10621545     0.17100
C3516       C  0.60314113  0.52748826  0.09917827     0.29400
C3517       C  0.57445754  0.51343096  0.10786419    -0.24500
C3518       C  0.57219743  0.53550059  0.11730664    -0.23800
C3519       C  0.59886208  0.57228854  0.11790633     0.40800
C3520       C  0.62795315  0.58614666  0.10940040    -0.26300
O3521       O  0.60538225  0.50512000  0.09026693    -0.58100
H3522       H  0.55386623  0.98513809  0.10722109     0.16400
O3523       O  0.59640253  0.59506625  0.12656392    -0.59600
H3524       H  0.64856843  0.61438878  0.11001834     0.14900
H3525       H  0.76220952  0.59440451  0.09313646     0.46700
H3526       H  0.58620723  0.00025035  0.08394360     0.42100
H3527       H  0.57889685  0.60142988  0.12286761     0.45600
H3528       H  0.61705242  0.55108129  0.06792451     0.37100
C3529       C  0.92379994  0.54740824  0.15790184    -0.27200
C3530       C  0.93640053  0.58329428  0.15390957     0.02400
C3531       C  0.96834303  0.60065618  0.14662263     0.30500
C3532       C  0.98596788  0.58180019  0.14290305    -0.19000
C3533       C  0.97204283  0.54523810  0.14612803    -0.28400
C3534       C  0.94147394  0.52841510  0.15408699     0.44500
C3535       C  0.91635319  0.60261307  0.15732081     0.05700
O3536       O  0.98171402  0.63562704  0.14258902    -0.56900
H3537       H  0.00954069  0.59518551  0.13680188     0.18700
O3538       O  0.92774116  0.99306477  0.15771747    -0.63600
H3539       H  0.89979232  0.53387043  0.16377848     0.17100
C3540       C  0.87978182  0.58882268  0.15392772     0.29400
C3541       C  0.86121913  0.60698066  0.15768523    -0.24500
C3542       C  0.87859108  0.63869255  0.16496927    -0.23800
C3543       C  0.91576925  0.65365875  0.16762678     0.40800
C3544       C  0.93418987  0.63556150  0.16391451    -0.26300
O3545       O  0.86206335  0.55773463  0.14688173    -0.58100
H3546       H  0.83269560  0.59510083  0.15557797     0.16400
O3547       O  0.93384390  0.68495001  0.17455673    -0.59600
H3548       H  0.96233383  0.64681789  0.16651821     0.14900
H3549       H  0.91082079  0.97852818  0.15085182     0.46700
H3550       H  0.84727013  0.53844708  0.15308909     0.42100
H3551       H  0.93999012  0.70475706  0.16838232     0.45600
H3552       H  0.96849131  0.63378355  0.13461999     0.37100
C3553       C  0.95800886  0.87802864  0.15728435    -0.27200
C3554       C  0.92176693  0.85532208  0.15360649     0.02400
C3555       C  0.90437551  0.87068306  0.14669997     0.30500
C3556       C  0.92335297  0.90727397  0.14316331    -0.19000
C3557       C  0.96015209  0.92935944  0.14613405    -0.28400
C3558       C  0.97707200  0.91476826  0.15366434     0.44500
C3559       C  0.90220351  0.81583350  0.15697723     0.01500
O3560       O  0.86925476  0.84972536  0.14280397    -0.56900
H3561       H  0.90983374  0.91794520  0.13734782     0.18700
O3562       O  0.51289462  0.93536650  0.15668776    -0.63600
H3563       H  0.97179066  0.86705083  0.16278743     0.17100
C3564       C  0.91627808  0.79290115  0.15383777     0.29400
C3565       C  0.89820421  0.75637612  0.15773339    -0.24500
C3566       C  0.86615722  0.74216849  0.16489096    -0.23800
C3567       C  0.85093511  0.76442705  0.16727381     0.40800
C3568       C  0.86892355  0.80076832  0.16341885    -0.26300
O3569       O  0.94822242  0.80614361  0.14728415    -0.58100
H3570       H  0.91046806  0.73981944  0.15587768     0.16400
O3571       O  0.81934584  0.75138224  0.17404193    -0.59600
H3572       H  0.85735056  0.81760137  0.16586517     0.14900
H3573       H  0.51330439  0.94765059  0.16475590     0.46700
H3574       H  0.94183523  0.80649211  0.13823932     0.42100
H3575       H  0.79984897  0.73969967  0.16763888     0.45600
H3576       H  0.87085750  0.84116798  0.13417577     0.37100
C3577       C  0.70402644  0.57148240  0.16359140    -0.27200
C3578       C  0.68846316  0.59009783  0.15771400     0.02400
C3579       C  0.71082267  0.62730183  0.15503874     0.30500
C3580       C  0.74744724  0.64540660  0.15869674    -0.19000
C3581       C  0.76226115  0.62701420  0.16517454    -0.28400
C3582       C  0.74047585  0.58949133  0.16720206     0.44500
C3583       C  0.64929238  0.57008230  0.15409842     0.05700
O3584       O  0.69696133  0.64646172  0.14915094    -0.56900
H3585       H  0.76365076  0.67430999  0.15720053     0.18700
O3586       O  0.75409139  0.57051883  0.17338984    -0.63600
H3587       H  0.68756495  0.54292860  0.16569909     0.17100
C3588       C  0.63542125  0.53847228  0.14663688     0.29400
C3589       C  0.59919453  0.52063413  0.14280564    -0.24500
C3590       C  0.57603699  0.53409658  0.14597909    -0.23800
C3591       C  0.58916869  0.56467217  0.15393187     0.40800
C3592       C  0.62553663  0.58242038  0.15794584    -0.26300
O3593       O  0.65753157  0.52569488  0.14248801    -0.58100
H3594       H  0.58962245  0.49722896  0.13665503     0.16400
O3595       O  0.56725395  0.57840759  0.15732368    -0.59600
H3596       H  0.63540242  0.60629193  0.16386408     0.14900
H3597       H  0.76757369  0.56530183  0.16680542     0.46700
H3598       H  0.66842591  0.53896095  0.13447139     0.42100
H3599       H  0.57029088  0.59573345  0.15049282     0.45600
H3600       H  0.69768460  0.64190254  0.13993044     0.37100
C3601       C  0.94002406  0.64135634  0.64747221    -0.27200
C3602       C  0.92835617  0.60450214  0.64911067     0.02400
C3603       C  0.90441627  0.57946195  0.64016104     0.30500
C3604       C  0.89079798  0.59109869  0.63026555    -0.19000
C3605       C  0.90118199  0.62779335  0.62892068    -0.28400
C3606       C  0.92677432  0.65313353  0.63748189     0.44500
C3607       C  0.93911419  0.59208015  0.66063017     0.05700
O3608       O  0.89348757  0.54336929  0.64118224    -0.56900
H3609       H  0.87153255  0.57117092  0.62374806     0.18700
O3610       O  0.93787034  0.68928925  0.63655988    -0.63600
H3611       H  0.95821754  0.66098390  0.65429754     0.17100
C3612       C  0.97557465  0.60699888  0.66419693     0.29400
C3613       C  0.98467745  0.59360381  0.67489322    -0.24500
C3614       C  0.95782665  0.56538952  0.68224620    -0.23800
C3615       C  0.92122026  0.55179341  0.67897157     0.40800
C3616       C  0.91222825  0.56508742  0.66826282    -0.26300
O3617       O  0.00258722  0.63305942  0.65685150    -0.58100
H3618       H  0.51295066  0.60418298  0.67707242     0.16400
O3619       O  0.89392777  0.52484393  0.68594489    -0.59600
H3620       H  0.88397101  0.55406035  0.66586499     0.14900
H3621       H  0.92126083  0.69305443  0.64216112     0.46700
H3622       H  0.51185221  0.65543996  0.66168973     0.42100
H3623       H  0.88636460  0.03780584  0.69221212     0.45600
H3624       H  0.91076203  0.53983288  0.63587875     0.37100
C3625       C  0.89912725  0.87443910  0.66185034    -0.27200
C3626       C  0.91245010  0.85098443  0.65917120     0.02400
C3627       C  0.93788517  0.84993421  0.66743255     0.30500
C3628       C  0.95053121  0.87303933  0.67793779    -0.19000
C3629       C  0.93770560  0.89705860  0.68053345    -0.28400
C3630       C  0.91123361  0.89711378  0.67246642     0.44500
C3631       C  0.90011869  0.82811108  0.64764477     0.05700
O3632       O  0.95079116  0.82662132  0.66525734    -0.56900
H3633       H  0.47063064  0.87233160  0.68400987     0.18700
O3634       O  0.89850605  0.92067416  0.67439074    -0.63600
H3635       H  0.87988529  0.87586311  0.65550292     0.17100
C3636       C  0.86310436  0.80490857  0.64531396     0.29400
C3637       C  0.85227671  0.78143770  0.63490323    -0.24500
C3638       C  0.87794421  0.78058367  0.62669972    -0.23800
C3639       C  0.91491326  0.80554211  0.62859461     0.40800
C3640       C  0.92569485  0.82897926  0.63901256    -0.26300
O3641       O  0.83747933  0.80299123  0.65369754    -0.58100
H3642       H  0.82373157  0.76246007  0.63370061     0.16400
O3643       O  0.94085507  0.80648332  0.62060388    -0.59600
H3644       H  0.95423827  0.84746560  0.64050141     0.14900
H3645       H  0.87575836  0.90674560  0.67928199     0.46700
H3646       H  0.82584755  0.81524188  0.64936916     0.42100
H3647       H  0.94335521  0.82345799  0.61371231     0.45600
H3648       H  0.93369056  0.80396354  0.66971379     0.37100
C3649       C  0.68104218  0.60459994  0.64382624    -0.27200
C3650       C  0.68632134  0.58395860  0.65308569     0.02400
C3651       C  0.71351080  0.57482286  0.65127507     0.30500
C3652       C  0.73531964  0.58677070  0.64043101    -0.19000
C3653       C  0.73086672  0.60839589  0.63132693    -0.28400
C3654       C  0.70307089  0.61686252  0.63301698     0.44500
C3655       C  0.66263747  0.57131462  0.66441296     0.05700
O3656       O  0.71950408  0.55489160  0.66018537    -0.56900
H3657       H  0.75668493  0.58015927  0.63939790     0.18700
O3658       O  0.69723456  0.63715787  0.62421899    -0.63600
H3659       H  0.65961187  0.61107762  0.64495524     0.17100
C3660       C  0.65859803  0.59580257  0.67228023     0.29400
C3661       C  0.63357764  0.58290265  0.68226539    -0.24500
C3662       C  0.61194430  0.54556448  0.68449727    -0.23800
C3663       C  0.61736355  0.52119366  0.67693447     0.40800
C3664       C  0.64260867  0.53420752  0.66702804    -0.26300
O3665       O  0.67925644  0.63239007  0.67033358    -0.58100
H3666       H  0.63038338  0.60224606  0.68802468     0.16400
O3667       O  0.59721588  0.98448846  0.67878649    -0.59600
H3668       H  0.64547560  0.51507647  0.66102639     0.14900
H3669       H  0.68089118  0.61955144  0.61781520     0.46700
H3670       H  0.66273552  0.63980753  0.66646213     0.42100
H3671       H  0.57647873  0.97604111  0.67286980     0.45600
H3672       H  0.73621865  0.57278358  0.66644362     0.37100
C3673       C  0.75428078  0.52625483  0.54967426    -0.27200
C3674       C  0.74312723  0.99176413  0.55465721     0.02400
C3675       C  0.74786803  0.48775512  0.56760375     0.30500
C3676       C  0.76392898  0.51818420  0.57552806    -0.19000
C3677       C  0.77522477  0.55289513  0.57062149    -0.28400
C3678       C  0.76976126  0.55656779  0.55754103     0.44500
C3679       C  0.72758432  0.96065629  0.54595784     0.05700
O3680       O  0.73782366  0.95414203  0.57256646    -0.56900
H3681       H  0.76785206  0.51457795  0.58548208     0.18700
O3682       O  0.77964444  0.58962531  0.55224262    -0.63600
H3683       H  0.75066612  0.52954319  0.53965549     0.17100
C3684       C  0.69077608  0.93444579  0.54659457     0.29400
C3685       C  0.67643490  0.90582619  0.53790090    -0.24500
C3686       C  0.69846432  0.90324233  0.52850815    -0.23800
C3687       C  0.73541331  0.92934830  0.52797521     0.40800
C3688       C  0.74964089  0.95809398  0.53658727    -0.26300
O3689       O  0.66845160  0.93760120  0.55529726    -0.58100
H3690       H  0.64795361  0.88583882  0.53837345     0.16400
O3691       O  0.75780595  0.92687321  0.51913692    -0.59600
H3692       H  0.77803170  0.97831023  0.53603391     0.14900
H3693       H  0.75824379  0.59280589  0.55327064     0.46700
H3694       H  0.66293325  0.91849303  0.56171211     0.42100
H3695       H  0.77057345  0.91621797  0.52371571     0.45600
H3696       H  0.71515350  0.94680834  0.57736075     0.37100
C3697       C  0.55991642  0.75352779  0.54348734    -0.27200
C3698       C  0.53277560  0.76275751  0.54228703     0.02400
C3699       C  0.53613939  0.78823056  0.53310412     0.30500
C3700       C  0.56705019  0.80494828  0.52547765    -0.19000
C3701       C  0.59424148  0.79573309  0.52666510    -0.28400
C3702       C  0.59041047  0.76962024  0.53566933     0.44500
C3703       C  0.50214624  0.74735882  0.55120569     0.05700
O3704       O  0.51030346  0.79834995  0.53203883    -0.56900
H3705       H  0.57010299  0.82562224  0.51879937     0.18700
O3706       O  0.61641231  0.75983181  0.53696539    -0.63600
H3707       H  0.55745381  0.73389620  0.55054368     0.17100
C3708       C  0.96662878  0.72528468  0.54684540     0.29400
C3709       C  0.93790905  0.71274008  0.55543662    -0.24500
C3710       C  0.94405070  0.72139762  0.56846621    -0.23800
C3711       C  0.97995353  0.74263281  0.57279341     0.40800
C3712       C  0.50861656  0.75539610  0.56417813    -0.26300
O3713       O  0.95973051  0.71623654  0.53422992    -0.58100
H3714       H  0.91073118  0.69618081  0.55183165     0.16400
O3715       O  0.98747778  0.75138586  0.58540043    -0.59600
H3716       H  0.53602412  0.77209417  0.56757563     0.14900
H3717       H  0.60983228  0.74000748  0.53075197     0.46700
H3718       H  0.96255925  0.69463829  0.53314743     0.42100
H3719       H  0.98998026  0.77571509  0.58627801     0.45600
H3720       H  0.49692468  0.78666651  0.52412953     0.37100
C3721       C  0.73530707  0.79877490  0.54493810    -0.27200
C3722       C  0.72517246  0.76250623  0.54269689     0.02400
C3723       C  0.70199795  0.74400188  0.53247129     0.30500
C3724       C  0.68921910  0.76192552  0.52471582    -0.19000
C3725       C  0.69968565  0.79832725  0.52692398    -0.28400
C3726       C  0.72279964  0.81670640  0.53713655     0.44500
C3727       C  0.73865030  0.74456658  0.55136338     0.05700
O3728       O  0.69015522  0.70799112  0.53045967    -0.56900
H3729       H  0.67046178  0.74714206  0.51713501     0.18700
O3730       O  0.73322329  0.85218415  0.53958534    -0.63600
H3731       H  0.75318628  0.81333702  0.55276017     0.17100
C3732       C  0.75885766  0.72900396  0.54678520     0.29400
C3733       C  0.77339291  0.71453853  0.55533040    -0.24500
C3734       C  0.76881631  0.71595112  0.56856152    -0.23800
C3735       C  0.74852182  0.73165143  0.57309183     0.40800
C3736       C  0.73346592  0.74549246  0.56450844    -0.26300
O3737       O  0.76555519  0.72880675  0.53402216    -0.58100
H3738       H  0.78896423  0.70284434  0.55154069     0.16400
O3739       O  0.74340866  0.73399122  0.58586492    -0.59600
H3740       H  0.71811845  0.75761498  0.56815185     0.14900
H3741       H  0.75896978  0.86604604  0.53700449     0.46700
H3742       H  0.78746906  0.75242292  0.53231642     0.42100
H3743       H  0.76351786  0.75792319  0.58850046     0.45600
H3744       H  0.70101457  0.70682005  0.52223936     0.37100
C3745       C  0.70263822  0.96940924  0.49907176    -0.27200
C3746       C  0.73502795  0.98353410  0.49211809     0.02400
C3747       C  0.74801716  0.95993039  0.48865744     0.30500
C3748       C  0.72949086  0.92346122  0.49255675    -0.19000
C3749       C  0.69804273  0.90998500  0.50000570    -0.28400
C3750       C  0.68409283  0.93308971  0.50287774     0.44500
C3751       C  0.75441765  0.52260689  0.48826781     0.05700
O3752       O  0.77914552  0.97236332  0.48166274    -0.56900
H3753       H  0.74074582  0.90620887  0.49033573     0.18700
O3754       O  0.65308594  0.92079667  0.50994568    -0.63600
H3755       H  0.69203816  0.98686076  0.50183397     0.17100
C3756       C  0.73623992  0.53740056  0.48152873     0.29400
C3757       C  0.75496924  0.57346671  0.47742372    -0.24500
C3758       C  0.79201006  0.59571225  0.47989908    -0.23800
C3759       C  0.80986401  0.58173945  0.48723717     0.40800
C3760       C  0.79113405  0.54542167  0.49133465    -0.26300
O3761       O  0.70068306  0.01605082  0.47816007    -0.58100
H3762       H  0.74083402  0.58368886  0.47172075     0.16400
O3763       O  0.84583154  0.60289619  0.49007100    -0.59600
H3764       H  0.80544692  0.53487632  0.49675926     0.14900
H3765       H  0.63303067  0.90805242  0.50380765     0.46700
H3766       H  0.68693055  0.02368589  0.48376583     0.42100
H3767       H  0.85898931  0.60045208  0.48269154     0.45600
H3768       H  0.77169164  0.47175222  0.47264145     0.37100
C3769       C  0.95639977  0.74922442  0.49112622    -0.27200
C3770       C  0.98078966  0.73843574  0.48659167     0.02400
C3771       C  0.96732550  0.70769997  0.47868490     0.30500
C3772       C  0.93076751  0.68901455  0.47523322    -0.19000
C3773       C  0.90687132  0.70103270  0.47908614    -0.28400
C3774       C  0.91975098  0.73083390  0.48740472     0.44500
C3775       C  0.51992226  0.75869303  0.49024755     0.05700
O3776       O  0.99005919  0.69658663  0.47377561    -0.56900
H3777       H  0.92146397  0.66619856  0.46881309     0.18700
O3778       O  0.89725164  0.74325248  0.49144754    -0.63600
H3779       H  0.96592418  0.77233827  0.49740694     0.17100
C3780       C  0.54163964  0.79647730  0.48851518     0.29400
C3781       C  0.57800507  0.81463956  0.49251184    -0.24500
C3782       C  0.59329253  0.79565405  0.49828783    -0.23800
C3783       C  0.57208384  0.75777411  0.49946387     0.40800
C3784       C  0.53591460  0.73973151  0.49553146    -0.26300
O3785       O  0.52739846  0.81605955  0.48321434    -0.58100
H3786       H  0.59364379  0.84382843  0.49177035     0.16400
O3787       O  0.58577090  0.73840467  0.50532267    -0.59600
H3788       H  0.51988664  0.71081309  0.49702706     0.14900
H3789       H  0.90073343  0.76229983  0.48527051     0.46700
H3790       H  0.52881438  0.81335448  0.47389168     0.42100
H3791       H  0.59901535  0.73348172  0.49856873     0.45600
H3792       H  0.49949431  0.71045116  0.46574029     0.37100
C3793       C  0.75063605  0.71177195  0.49059413    -0.27200
C3794       C  0.76521586  0.74866869  0.48756536     0.02400
C3795       C  0.79904374  0.76663147  0.48135766     0.30500
C3796       C  0.81675760  0.74764821  0.47782355    -0.19000
C3797       C  0.80122814  0.71041759  0.48017665    -0.28400
C3798       C  0.76847500  0.69273323  0.48700740     0.44500
C3799       C  0.74536961  0.76841310  0.49090937     0.05700
O3800       O  0.81425190  0.80242093  0.47810075    -0.56900
H3801       H  0.84172533  0.76158504  0.47244807     0.18700
O3802       O  0.75205666  0.65623389  0.48920041    -0.63600
H3803       H  0.72497570  0.69749970  0.49553588     0.17100
C3804       C  0.70890106  0.75522569  0.48740389     0.29400
C3805       C  0.69054115  0.77348491  0.49130289    -0.24500
C3806       C  0.70808910  0.80505794  0.49866430    -0.23800
C3807       C  0.74511254  0.81946806  0.50142739     0.40800
C3808       C  0.76323365  0.80107937  0.49769461    -0.26300
O3809       O  0.69067967  0.72407142  0.48042813    -0.58100
H3810       H  0.66205943  0.76186744  0.48918821     0.16400
O3811       O  0.76320379  0.85024406  0.50862290    -0.59600
H3812       H  0.79114877  0.81182555  0.50050808     0.14900
H3813       H  0.76418905  0.65363966  0.49683825     0.46700
H3814       H  0.69717619  0.73166343  0.47144342     0.42100
H3815       H  0.76778526  0.87041943  0.50281925     0.45600
H3816       H  0.80412294  0.80249918  0.46962481     0.37100
C3817       C  0.88338714  0.96605898  0.87261199    -0.27200
C3818       C  0.86696496  0.92873076  0.87466045     0.02400
C3819       C  0.87947739  0.90828582  0.86809986     0.30500
C3820       C  0.90892922  0.92555945  0.85982720    -0.19000
C3821       C  0.92580472  0.96302244  0.85800887    -0.28400
C3822       C  0.91253020  0.98327621  0.86422291     0.44500
C3823       C  0.83665790  0.91164305  0.88365890     0.05700
O3824       O  0.86362255  0.87167450  0.86994408    -0.56900
H3825       H  0.91923317  0.90992814  0.85506803     0.18700
O3826       O  0.92824974  0.51996781  0.86221286    -0.63600
H3827       H  0.87353127  0.98184621  0.87753344     0.17100
C3828       C  0.84201079  0.91997793  0.89667970     0.29400
C3829       C  0.81244119  0.90583144  0.90495875    -0.24500
C3830       C  0.77717428  0.88375271  0.90036638    -0.23800
C3831       C  0.77216345  0.87465880  0.88728294     0.40800
C3832       C  0.80185383  0.88866218  0.87906687    -0.26300
O3833       O  0.87613225  0.94167833  0.90138654    -0.58100
H3834       H  0.81715520  0.91284764  0.91494834     0.16400
O3835       O  0.73841517  0.85272438  0.88232917    -0.59600
H3836       H  0.79762306  0.88225880  0.86901544     0.14900
H3837       H  0.90895053  0.52421139  0.85884096     0.46700
H3838       H  0.87882988  0.96612630  0.90202350     0.42100
H3839       H  0.73485665  0.82790181  0.88275923     0.45600
H3840       H  0.87670454  0.86875325  0.87722676     0.37100
C3841       C  0.56365133  0.90945307  0.89812760    -0.27200
C3842       C  0.56856869  0.90937527  0.88494076     0.02400
C3843       C  0.59029978  0.89597227  0.88002652     0.30500
C3844       C  0.60707796  0.88315864  0.88830035    -0.19000
C3845       C  0.60254214  0.88338729  0.90157247    -0.28400
C3846       C  0.58038684  0.89664876  0.90643656     0.44500
C3847       C  0.55342352  0.92613418  0.87647500     0.05700
O3848       O  0.59703669  0.89736129  0.86720472    -0.56900
H3849       H  0.62417940  0.87354106  0.88426564     0.18700
O3850       O  0.57453470  0.89696122  0.91925701    -0.63600
H3851       H  0.54703630  0.91987906  0.90200135     0.17100
C3852       C  0.52932145  0.90652613  0.86659208     0.29400
C3853       C  0.51723726  0.92396354  0.85831089    -0.24500
C3854       C  0.52877773  0.96084082  0.85982403    -0.23800
C3855       C  0.55194171  0.98008012  0.86995956     0.40800
C3856       C  0.56423345  0.96273858  0.87814397    -0.26300
O3857       O  0.51722082  0.87033545  0.86503310    -0.58100
H3858       H  0.49834124  0.90854582  0.85084530     0.16400
O3859       O  0.56407909  0.01627857  0.87157011    -0.59600
H3860       H  0.58282952  0.97811175  0.88569826     0.14900
H3861       H  0.59265228  0.92155942  0.92214976     0.46700
H3862       H  0.49590869  0.85792434  0.87072303     0.42100
H3863       H  0.55144105  0.01800899  0.87924660     0.45600
H3864       H  0.58280669  0.87203891  0.86418102     0.37100
C3865       C  0.60069637  0.69043413  0.88160517    -0.27200
C3866       C  0.58713834  0.65599687  0.88689611     0.02400
C3867       C  0.58873818  0.65239756  0.90015157     0.30500
C3868       C  0.60270419  0.68316291  0.90796174    -0.19000
C3869       C  0.61523834  0.71776752  0.90271249    -0.28400
C3870       C  0.61476868  0.72111476  0.88931736     0.44500
C3871       C  0.56992655  0.62422920  0.87838781     0.05700
O3872       O  0.57783016  0.61909823  0.90545656    -0.56900
H3873       H  0.60356517  0.67981710  0.91814401     0.18700
O3874       O  0.62712005  0.75411305  0.88358962    -0.63600
H3875       H  0.59965796  0.69351122  0.87140559     0.17100
C3876       C  0.53322714  0.59825817  0.87984310     0.29400
C3877       C  0.51654507  0.57015195  0.87104467    -0.24500
C3878       C  0.53572578  0.56756213  0.86063558    -0.23800
C3879       C  0.57281384  0.59295932  0.85939419     0.40800
C3880       C  0.58950303  0.62134291  0.86813115    -0.26300
O3881       O  0.51298593  0.60135615  0.88941893    -0.58100
H3882       H  0.98815892  0.55061708  0.87226003     0.16400
O3883       O  0.59321477  0.58977599  0.84991956    -0.59600
H3884       H  0.61786380  0.64108736  0.86694981     0.14900
H3885       H  0.65252072  0.76213991  0.88118839     0.46700
H3886       H  0.50625251  0.58035594  0.89509336     0.42100
H3887       H  0.60199119  0.57401475  0.85349416     0.45600
H3888       H  0.55657701  0.61373980  0.91082703     0.37100
C3889       C  0.77493436  0.91075611  0.76900617    -0.27200
C3890       C  0.79379807  0.89200267  0.76718790     0.02400
C3891       C  0.78400625  0.86039557  0.77427005     0.30500
C3892       C  0.75476391  0.84734772  0.78274108    -0.19000
C3893       C  0.73555595  0.86590017  0.78436869    -0.28400
C3894       C  0.74636876  0.89830391  0.77770132     0.44500
C3895       C  0.82479106  0.90705923  0.75833624     0.05700
O3896       O  0.80267363  0.84204670  0.77290067    -0.56900
H3897       H  0.74678808  0.82255342  0.78794622     0.18700
O3898       O  0.72918831  0.91791745  0.77968746    -0.63600
H3899       H  0.78293794  0.93565174  0.76386350     0.17100
C3900       C  0.82040198  0.91231406  0.74539345     0.29400
C3901       C  0.85063124  0.92915777  0.73738406    -0.24500
C3902       C  0.88563189  0.94164976  0.74217365    -0.23800
C3903       C  0.88973418  0.93623319  0.75522829     0.40800
C3904       C  0.85943923  0.91880871  0.76311247    -0.26300
O3905       O  0.78656193  0.90035990  0.74045942    -0.58100
H3906       H  0.84660551  0.93271328  0.72743541     0.16400
O3907       O  0.92313853  0.94744676  0.76042703    -0.59600
H3908       H  0.86311131  0.91528466  0.77310471     0.14900
H3909       H  0.74834166  0.94305321  0.78156581     0.46700
H3910       H  0.78409957  0.92224050  0.73969895     0.42100
H3911       H  0.93050131  0.97145271  0.76422057     0.45600
H3912       H  0.78961251  0.82377460  0.76619604     0.37100
C3913       C  0.57398664  0.86652981  0.77773133    -0.27200
C3914       C  0.59272155  0.88743874  0.76713720     0.02400
C3915       C  0.62798053  0.89459874  0.76461884     0.30500
C3916       C  0.64444631  0.88150101  0.77281631    -0.19000
C3917       C  0.62660310  0.86188777  0.78374837    -0.28400
C3918       C  0.59040520  0.85301047  0.78586630     0.44500
C3919       C  0.57559680  0.90207408  0.75874305     0.05700
O3920       O  0.64693485  0.91540335  0.75438400    -0.56900
H3921       H  0.67115267  0.88658240  0.77048669     0.18700
O3922       O  0.57044638  0.83021247  0.79554037    -0.63600
H3923       H  0.54641569  0.86019508  0.77954379     0.17100
C3924       C  0.56634587  0.88970610  0.74616831     0.29400
C3925       C  0.55251481  0.90588545  0.73806489    -0.24500
C3926       C  0.54762834  0.93441271  0.74238659    -0.23800
C3927       C  0.55667433  0.94639148  0.75511857     0.40800
C3928       C  0.57044699  0.93012220  0.76316204    -0.26300
O3929       O  0.57128375  0.86221591  0.74167336    -0.58100
H3930       H  0.54564074  0.89609053  0.72839122     0.16400
O3931       O  0.55410248  0.47530975  0.75964356    -0.59600
H3932       H  0.57803068  0.94006545  0.77280033     0.14900
H3933       H  0.56331254  0.80555495  0.79245165     0.46700
H3934       H  0.54992089  0.83964815  0.74467897     0.42100
H3935       H  0.53089478  0.46455014  0.76437129     0.45600
H3936       H  0.64594648  0.89804827  0.74788307     0.37100
C3937       C  0.63007967  0.70767253  0.77674430    -0.27200
C3938       C  0.60115835  0.70114379  0.76872462     0.02400
C3939       C  0.58615614  0.72406127  0.76935115     0.30500
C3940       C  0.60094855  0.75369324  0.77762575    -0.19000
C3941       C  0.63021118  0.76044743  0.78543799    -0.28400
C3942       C  0.64456694  0.73708155  0.78511080     0.44500
C3943       C  0.58692544  0.67021084  0.75982026     0.05700
O3944       O  0.55629968  0.71686042  0.76226374    -0.56900
H3945       H  0.58960399  0.77150922  0.77794643     0.18700
O3946       O  0.67402105  0.74407123  0.79238763    -0.63600
H3947       H  0.64192434  0.69030709  0.77633437     0.17100
C3948       C  0.58465079  0.67498855  0.74666662     0.29400
C3949       C  0.57070379  0.64517333  0.73850246    -0.24500
C3950       C  0.55930707  0.61030429  0.74322168    -0.23800
C3951       C  0.56287307  0.60581044  0.75636378     0.40800
C3952       C  0.57656122  0.63562929  0.76451136    -0.26300
O3953       O  0.59637020  0.70873704  0.74166409    -0.58100
H3954       H  0.56861017  0.64940607  0.72845260     0.16400
O3955       O  0.55408668  0.57264420  0.76131924    -0.59600
H3956       H  0.57884591  0.63167216  0.77457679     0.14900
H3957       H  0.66527889  0.72377451  0.79852729     0.46700
H3958       H  0.62235163  0.71837343  0.73974731     0.42100
H3959       H  0.52970467  0.56322889  0.76510967     0.45600
H3960       H  0.56451793  0.73723663  0.75617384     0.37100
C3961       C  0.58622194  0.87628444  0.82490970    -0.27200
C3962       C  0.59701439  0.91126355  0.82029256     0.02400
C3963       C  0.62754256  0.92808313  0.81227919     0.30500
C3964       C  0.64530218  0.90941328  0.80844140    -0.19000
C3965       C  0.63302034  0.87360532  0.81232923    -0.28400
C3966       C  0.60424908  0.85762529  0.82109052     0.44500
C3967       C  0.57649146  0.93012184  0.82379069     0.05700
O3968       O  0.63929491  0.96224030  0.80765893    -0.56900
H3969       H  0.66763007  0.92226694  0.80178919     0.18700
O3970       O  0.59155616  0.82274534  0.82508989    -0.63600
H3971       H  0.56334042  0.86315537  0.83131357     0.17100
C3972       C  0.53909175  0.91449885  0.82137278     0.29400
C3973       C  0.52030596  0.93245346  0.82513387    -0.24500
C3974       C  0.53829148  0.96589457  0.83142210    -0.23800
C3975       C  0.57586572  0.98217033  0.83332182     0.40800
C3976       C  0.59463138  0.96442848  0.82949887    -0.26300
O3977       O  0.52081106  0.88193123  0.81519286    -0.58100
H3978       H  0.49135589  0.91940187  0.82371537     0.16400
O3979       O  0.59435762  0.51542515  0.83909875    -0.59600
H3980       H  0.62336658  0.97711659  0.83134665     0.14900
H3981       H  0.60512819  0.82485713  0.83299112     0.46700
H3982       H  0.50758636  0.86387242  0.82195259     0.42100
H3983       H  0.60023617  0.51058576  0.84773717     0.45600
H3984       H  0.62583517  0.95869115  0.79961214     0.37100
C3985       C  0.79766907  0.92659782  0.81366613    -0.27200
C3986       C  0.81309547  0.90787053  0.81960303     0.02400
C3987       C  0.78998883  0.87117183  0.82291934     0.30500
C3988       C  0.75347390  0.85329540  0.81910271    -0.19000
C3989       C  0.73899688  0.87190431  0.81261125    -0.28400
C3990       C  0.76090756  0.90929406  0.81067428     0.44500
C3991       C  0.85271686  0.92780859  0.82270737     0.05700
O3992       O  0.80240356  0.85307356  0.83030658    -0.56900
H3993       H  0.73688714  0.82467020  0.82087802     0.18700
O3994       O  0.74682862  0.92901205  0.80540100    -0.63600
H3995       H  0.81421139  0.95486433  0.81118087     0.17100
C3996       C  0.87541140  0.91260265  0.82090546     0.29400
C3997       C  0.91177833  0.93161327  0.82480178    -0.24500
C3998       C  0.92665601  0.96655645  0.82988180    -0.23800
C3999       C  0.90514316  0.98302470  0.83044317     0.40800
C4000       C  0.86852393  0.96353243  0.82723318    -0.26300
O4001       O  0.86248041  0.87916096  0.81548165    -0.58100
H4002       H  0.92797202  0.91849382  0.82432888     0.16400
O4003       O  0.91926846  0.01767341  0.83485531    -0.59600
H4004       H  0.85228614  0.97634814  0.82862412     0.14900
H4005       H  0.73489245  0.93430015  0.81253326     0.46700
H4006       H  0.86133145  0.88300928  0.80622973     0.42100
H4007       H  0.92401017  0.53271842  0.82691309     0.45600
H4008       H  0.79899752  0.83203722  0.82518435     0.37100
C4009       C  0.62318342  0.70860177  0.82446850    -0.27200
C4010       C  0.58668294  0.68659550  0.82109756     0.02400
C4011       C  0.56887701  0.70248662  0.81479881     0.30500
C4012       C  0.58804714  0.73898146  0.81125524    -0.19000
C4013       C  0.62520135  0.76022988  0.81374297    -0.28400
C4014       C  0.64234018  0.74523657  0.82091599     0.44500
C4015       C  0.56723810  0.64730776  0.82429134     0.05700
O4016       O  0.53315039  0.68213576  0.81150941    -0.56900
H4017       H  0.57441272  0.75014127  0.80575019     0.18700
O4018       O  0.67843749  0.76522807  0.82360159    -0.63600
H4019       H  0.63708232  0.69714550  0.82963726     0.17100
C4020       C  0.57992990  0.62396545  0.82021203     0.29400
C4021       C  0.56195565  0.58740899  0.82400468    -0.24500
C4022       C  0.53171421  0.57393732  0.83206062    -0.23800
C4023       C  0.51772034  0.59671746  0.83539726     0.40800
C4024       C  0.53565539  0.63305287  0.83163740    -0.26300
O4025       O  0.60976879  0.63665080  0.81249199    -0.58100
H4026       H  0.57293265  0.57022600  0.82130340     0.16400
O4027       O  0.48771539  0.58413018  0.84304887    -0.59600
H4028       H  0.52537745  0.65045810  0.83481533     0.14900
H4029       H  0.67961752  0.77555560  0.83216473     0.46700
H4030       H  0.62982318  0.64020599  0.81816754     0.42100
H4031       H  0.96985583  0.58742689  0.83806016     0.45600
H4032       H  0.53326351  0.67412145  0.80265590     0.37100
C4033       C  0.91982782  0.79388333  0.20114025    -0.27200
C4034       C  0.89780463  0.79713935  0.21040169     0.02400
C4035       C  0.86100810  0.77048076  0.21116951     0.30500
C4036       C  0.84666809  0.74170052  0.20260788    -0.19000
C4037       C  0.86866737  0.73862503  0.19336981    -0.28400
C4038       C  0.90562506  0.76446446  0.19277482     0.44500
C4039       C  0.91335833  0.82814954  0.21929221     0.05700
O4040       O  0.83899745  0.77189219  0.22042275    -0.56900
H4041       H  0.81832395  0.72138059  0.20327971     0.18700
O4042       O  0.92827574  0.75968370  0.18468480    -0.63600
H4043       H  0.94817729  0.81403594  0.20043014     0.17100
C4044       C  0.94531540  0.83767058  0.22606046     0.29400
C4045       C  0.95910615  0.86684460  0.23450662    -0.24500
C4046       C  0.94149219  0.88698747  0.23640276    -0.23800
C4047       C  0.90921599  0.87707570  0.22969409     0.40800
C4048       C  0.89579345  0.84826511  0.22111321    -0.26300
O4049       O  0.96242122  0.81770899  0.22488366    -0.58100
H4050       H  0.98368637  0.87355719  0.23962262     0.16400
O4051       O  0.89102078  0.89587924  0.23113444    -0.59600
H4052       H  0.87152080  0.84168694  0.21581074     0.14900
H4053       H  0.94104129  0.78221025  0.17960381     0.46700
H4054       H  0.98507631  0.83335854  0.22014514     0.42100
H4055       H  0.87139759  0.88160944  0.23730876     0.45600
H4056       H  0.84182609  0.75915778  0.22784192     0.37100
C4057       C  0.87519568  0.58333734  0.20118740    -0.27200
C4058       C  0.90137165  0.60519559  0.21013995     0.02400
C4059       C  0.91293775  0.64243210  0.21066110     0.30500
C4060       C  0.89822364  0.65723087  0.20233909    -0.19000
C4061       C  0.87224588  0.63538322  0.19336595    -0.28400
C4062       C  0.86044677  0.59815745  0.19288679     0.44500
C4063       C  0.91641109  0.58892755  0.21890755     0.05700
O4064       O  0.93830407  0.66447626  0.21935664    -0.56900
H4065       H  0.90709541  0.68585510  0.20286849     0.18700
O4066       O  0.83414720  0.57598391  0.18448963    -0.63600
H4067       H  0.86612988  0.55468345  0.20066244     0.17100
C4068       C  0.89371525  0.55979544  0.22685983     0.29400
C4069       C  0.90855670  0.54462478  0.23498886    -0.24500
C4070       C  0.94613105  0.55841803  0.23546810    -0.23800
C4071       C  0.96876177  0.58766350  0.22744862     0.40800
C4072       C  0.95382807  0.60263056  0.21929931    -0.26300
O4073       O  0.85702529  0.54622558  0.22686013    -0.58100
H4074       H  0.89058221  0.52228401  0.24104843     0.16400
O4075       O  0.00551466  0.60170717  0.22736313    -0.59600
H4076       H  0.97154863  0.62481344  0.21313084     0.14900
H4077       H  0.81095389  0.56801170  0.18900614     0.46700
H4078       H  0.85285021  0.56183192  0.23283239     0.42100
H4079       H  0.00997424  0.58709395  0.22102354     0.45600
H4080       H  0.92458063  0.66174792  0.22730012     0.37100
C4081       C  0.65647637  0.54513095  0.22185951    -0.27200
C4082       C  0.67718069  0.58275647  0.22025053     0.02400
C4083       C  0.66774460  0.60521295  0.22719160     0.30500
C4084       C  0.63716983  0.59003255  0.23500873    -0.19000
C4085       C  0.61591216  0.55236480  0.23644149    -0.28400
C4086       C  0.62650169  0.52991220  0.23002694     0.44500
C4087       C  0.70768932  0.59842275  0.21102058     0.05700
O4088       O  0.68819937  0.64216005  0.22639501    -0.56900
H4089       H  0.63023997  0.60799386  0.24002921     0.18700
O4090       O  0.60706898  0.49301198  0.23125140    -0.63600
H4091       H  0.66302638  0.52732374  0.21655493     0.17100
C4092       C  0.73454826  0.58826670  0.21098709     0.29400
C4093       C  0.76349922  0.60451422  0.20241792    -0.24500
C4094       C  0.76594623  0.63052794  0.19370302    -0.23800
C4095       C  0.73932585  0.64081893  0.19371552     0.40800
C4096       C  0.71027219  0.62447180  0.20223777    -0.26300
O4097       O  0.73381465  0.56404326  0.21974232    -0.58100
H4098       H  0.78436108  0.59704037  0.20266402     0.16400
O4099       O  0.74299975  0.66861261  0.18609321    -0.59600
H4100       H  0.68985200  0.63255143  0.20206782     0.14900
H4101       H  0.61947219  0.48717209  0.23804406     0.46700
H4102       H  0.72773860  0.54183550  0.21483741     0.42100
H4103       H  0.72027728  0.65884519  0.18114162     0.45600
H4104       H  0.70845962  0.64897419  0.23240887     0.37100
C4105       C  0.57601383  0.89161019  0.33297473    -0.27200
C4106       C  0.60291596  0.92143690  0.32638090     0.02400
C4107       C  0.63841141  0.93935660  0.33106403     0.30500
C4108       C  0.64692954  0.92658156  0.34198691    -0.19000
C4109       C  0.62040096  0.89573490  0.34839654    -0.28400
C4110       C  0.58444087  0.87863634  0.34390106     0.44500
C4111       C  0.59310232  0.93490776  0.31505414     0.05700
O4112       O  0.66507513  0.96907464  0.32491596    -0.56900
H4113       H  0.67475285  0.94028002  0.34517100     0.18700
O4114       O  0.55727745  0.84944680  0.35011389    -0.63600
H4115       H  0.54832016  0.87838112  0.32964567     0.17100
C4116       C  0.57796770  0.91298023  0.30424881     0.29400
C4117       C  0.56546938  0.92527676  0.29416774    -0.24500
C4118       C  0.56717021  0.95897003  0.29493763    -0.23800
C4119       C  0.58402042  0.98152050  0.30552789     0.40800
C4120       C  0.59702542  0.96946982  0.31542447    -0.26300
O4121       O  0.57525949  0.87956439  0.30351216    -0.58100
H4122       H  0.55276025  0.90771005  0.28608551     0.16400
O4123       O  0.58772802  0.01537571  0.30632241    -0.59600
H4124       H  0.60889717  0.98662856  0.32366742     0.14900
H4125       H  0.55339303  0.82801017  0.34513877     0.46700
H4126       H  0.54975448  0.86205371  0.30565971     0.42100
H4127       H  0.06879839  0.01297286  0.31237138     0.45600
H4128       H  0.67486564  0.95926127  0.31843916     0.37100
C4129       C  0.56917509  0.70765117  0.32813791    -0.27200
C4130       C  0.58797739  0.69036808  0.32392216     0.02400
C4131       C  0.61802276  0.69468513  0.33089211     0.30500
C4132       C  0.62881603  0.71603352  0.34189264    -0.19000
C4133       C  0.60977225  0.73311897  0.34625307    -0.28400
C4134       C  0.57945663  0.72846296  0.33923146     0.44500
C4135       C  0.57420384  0.66559952  0.31286265     0.05700
O4136       O  0.63678302  0.67780657  0.32712220    -0.56900
H4137       H  0.65231854  0.71929396  0.34698248     0.18700
O4138       O  0.56018982  0.74494110  0.34284982    -0.63600
H4139       H  0.54615978  0.70481406  0.32282052     0.17100
C4140       C  0.53839560  0.63672714  0.31288143     0.29400
C4141       C  0.52636552  0.61141515  0.30306541    -0.24500
C4142       C  0.54941667  0.61430811  0.29303506    -0.23800
C4143       C  0.58487333  0.64388766  0.29270044     0.40800
C4144       C  0.59703815  0.66942870  0.30258081    -0.26300
O4145       O  0.51578523  0.63145845  0.32296385    -0.58100
H4146       H  0.49911656  0.58860222  0.30353677     0.16400
O4147       O  0.60835468  0.64695401  0.28320063    -0.59600
H4148       H  0.62461941  0.69165505  0.30241067     0.14900
H4149       H  0.53970791  0.72658664  0.34796483     0.46700
H4150       H  0.49833005  0.63864269  0.31982380     0.42100
H4151       H  0.62137561  0.63481625  0.28653369     0.45600
H4152       H  0.62451573  0.65387885  0.33137878     0.37100
C4153       C  0.80768403  0.86817154  0.33308959    -0.27200
C4154       C  0.82206464  0.90307236  0.32807736     0.02400
C4155       C  0.81382959  0.92782913  0.33391276     0.30500
C4156       C  0.79032860  0.91707931  0.34433739    -0.19000
C4157       C  0.77465887  0.88161655  0.34913820    -0.28400
C4158       C  0.78404372  0.85722765  0.34347096     0.44500
C4159       C  0.84591763  0.91349247  0.31681739     0.05700
O4160       O  0.82832171  0.96249717  0.32940592    -0.56900
H4161       H  0.78372857  0.93641045  0.34846022     0.18700
O4162       O  0.76986558  0.82241583  0.34780066    -0.63600
H4163       H  0.81407114  0.84896887  0.32871306     0.17100
C4164       C  0.87845597  0.91275919  0.31727511     0.29400
C4165       C  0.90189936  0.92494499  0.30687950    -0.24500
C4166       C  0.89341722  0.93783963  0.29584211    -0.23800
C4167       C  0.85994731  0.93684868  0.29513088     0.40800
C4168       C  0.83646878  0.92479829  0.30562335    -0.26300
O4169       O  0.88865897  0.90246080  0.32815708    -0.58100
H4170       H  0.92746223  0.92535512  0.30762726     0.16400
O4171       O  0.85060933  0.94898129  0.28450884    -0.59600
H4172       H  0.81114621  0.92493937  0.30513054     0.14900
H4173       H  0.74890898  0.80763953  0.34220013     0.46700
H4174       H  0.88406074  0.87763121  0.32644669     0.42100
H4175       H  0.85919471  0.47481762  0.28612613     0.45600
H4176       H  0.85227435  0.97617368  0.33355948     0.37100
C4177       C  0.79622948  0.54689454  0.44203499    -0.27200
C4178       C  0.76668868  0.54018633  0.43432902     0.02400
C4179       C  0.75136618  0.56273714  0.43533207     0.30500
C4180       C  0.76611740  0.59198507  0.44379541    -0.19000
C4181       C  0.79574862  0.59872123  0.45141428    -0.28400
C4182       C  0.81090349  0.57608064  0.45048952     0.44500
C4183       C  0.75167647  0.50899265  0.42553023     0.05700
O4184       O  0.72116337  0.55546076  0.42846327    -0.56900
H4185       H  0.75433719  0.60936598  0.44446820     0.18700
O4186       O  0.84026492  0.58251484  0.45770528    -0.63600
H4187       H  0.80818976  0.52966679  0.44136524     0.17100
C4188       C  0.75148060  0.01360388  0.41225880     0.29400
C4189       C  0.73729371  0.98347502  0.40417912    -0.24500
C4190       C  0.72330184  0.94833584  0.40912218    -0.23800
C4191       C  0.72425130  0.94398973  0.42244068     0.40800
C4192       C  0.73821624  0.97409396  0.43046115    -0.26300
O4193       O  0.76545122  0.04751373  0.40710455    -0.58100
H4194       H  0.73718298  0.98768433  0.39402342     0.16400
O4195       O  0.71161128  0.91047985  0.42779539    -0.59600
H4196       H  0.73855115  0.47029785  0.44066484     0.14900
H4197       H  0.86163580  0.59872241  0.45248070     0.46700
H4198       H  0.79180105  0.05673367  0.40634702     0.42100
H4199       H  0.73283220  0.90681989  0.42815230     0.45600
H4200       H  0.72974439  0.57418621  0.42171774     0.37100
C4201       C  0.52448349  0.75771003  0.42935686    -0.27200
C4202       C  0.99047068  0.74839694  0.42449973     0.02400
C4203       C  0.48680094  0.75398840  0.41153767     0.30500
C4204       C  0.51727126  0.76900786  0.40359469    -0.19000
C4205       C  0.55160943  0.77844454  0.40841824    -0.28400
C4206       C  0.55492943  0.77265262  0.42148408     0.44500
C4207       C  0.95907064  0.73277691  0.43313678     0.05700
O4208       O  0.45384740  0.74633006  0.40672688    -0.56900
H4209       H  0.51400286  0.77361631  0.39367673     0.18700
O4210       O  0.58758735  0.78059769  0.42664647    -0.63600
H4211       H  0.02746345  0.75345266  0.43935083     0.17100
C4212       C  0.93172067  0.69651416  0.43191671     0.29400
C4213       C  0.90306791  0.68178608  0.44060129    -0.24500
C4214       C  0.90118217  0.70292238  0.45048354    -0.23800
C4215       C  0.92801592  0.73959743  0.45144019     0.40800
C4216       C  0.95711316  0.75407202  0.44294525    -0.26300
O4217       O  0.93362589  0.67498429  0.42258165    -0.58100
H4218       H  0.88231080  0.65371558  0.43964172     0.16400
O4219       O  0.92581005  0.76165484  0.46047850    -0.59600
H4220       H  0.97797847  0.78213202  0.44388400     0.14900
H4221       H  0.59695880  0.80468686  0.43066393     0.46700
H4222       H  0.91482729  0.67150392  0.41630742     0.42100
H4223       H  0.90818512  0.76829040  0.45709279     0.45600
H4224       H  0.94619593  0.72475048  0.40122248     0.37100
C4225       C  0.74880076  0.71152527  0.44370641    -0.27200
C4226       C  0.77132594  0.73660444  0.43457192     0.02400
C4227       C  0.80810587  0.74673741  0.43404766     0.30500
C4228       C  0.82193721  0.73165050  0.44262497    -0.19000
C4229       C  0.79933486  0.70624288  0.45166959    -0.28400
C4230       C  0.76245162  0.69585280  0.45209611     0.44500
C4231       C  0.75591503  0.75193940  0.42566524     0.05700
O4232       O  0.83076673  0.77193516  0.42539357    -0.56900
H4233       H  0.85032337  0.73955976  0.44215915     0.18700
O4234       O  0.73937782  0.66968117  0.46038419    -0.63600
H4235       H  0.72036557  0.70343770  0.44409994     0.17100
C4236       C  0.75147205  0.74249286  0.41271679     0.29400
C4237       C  0.73523392  0.75622538  0.40457139    -0.24500
C4238       C  0.72305733  0.77933517  0.40920464    -0.23800
C4239       C  0.72822463  0.78911209  0.42223778     0.40800
C4240       C  0.74420748  0.77512737  0.43032691    -0.26300
O4241       O  0.76244108  0.71945488  0.40799074    -0.58100
H4242       H  0.73181299  0.74838815  0.39464576     0.16400
O4243       O  0.71761724  0.81212727  0.42726026    -0.59600
H4244       H  0.74757268  0.78248349  0.44030824     0.14900
H4245       H  0.72979147  0.64660573  0.45564088     0.46700
H4246       H  0.74126368  0.69488551  0.40900006     0.42100
H4247       H  0.73905396  0.83662877  0.42647228     0.45600
H4248       H  0.83389733  0.75781660  0.41849424     0.37100
loop_ 
_geom_bond_atom_site_label_1 
_geom_bond_atom_site_label_2 
_geom_bond_distance 
_geom_bond_site_symmetry_2 
_ccdc_geom_bond_type 
Zn1           O5   1.959       .  S
Zn1           O6   2.031       .  S
Zn1          O10   1.998       .  S
Zn1          O17   2.020       .  S
Zn2           O5   1.927       .  S
Zn2           O7   1.995       .  S
Zn2           O9   1.989       .  S
Zn2          O13   1.991       .  S
Zn3           O5   1.957       .  S
Zn3           O8   2.011       .  S
Zn3          O11   2.031       .  S
Zn3          O14   1.997       .  S
Zn4           O5   1.956       .  S
Zn4          O12   2.003       .  S
Zn4          O15   2.028       .  S
Zn4          O16   2.004       .  S
O6           C18   1.276       .  A
O7           C19   1.271       .  A
O8           C20   1.273       .  A
O9           C18   1.270       .  A
O10          C20   1.271       .  A
O11          C19   1.275       .  A
O12          C21   1.272       .  A
O13          C22   1.271       .  A
O14          C21   1.272       .  A
O15          C22   1.275       .  A
O16          C23   1.272       .  A
O17          C23   1.274       .  A
C18        C1052   1.485       .  S
C19        C1004   1.487       .  S
C20         C971   1.485       .  S
C21         C923   1.481       .  S
C22        C1019   1.484       .  S
C23         C947   1.488       .  S
Zn24         O28   1.964       .  S
Zn24         O33   2.054       .  S
Zn24         O40   2.012       .  S
Zn24       O1091   2.020       .  S
Zn25       O3214   1.953       .  S
Zn25         O30   2.044       .  S
Zn25         O36   2.015       .  S
Zn25       O2156   2.011   1_455  S
Zn26         O28   1.901       .  S
Zn26         O31   1.957       .  S
Zn26       O3220   1.963       .  S
Zn26       O2161   1.953       .  S
Zn27       O2152   1.959       .  S
Zn27         O35   2.036       .  S
Zn27       O1100   2.015       .  S
Zn27       O2163   2.006   1_455  S
O28       Zn3211   1.953       .  S
O28       Zn2151   1.960       .  S
O29       Zn1086   2.020   1_545  S
O29          C41   1.276       .  A
O30          C42   1.274       .  A
O31          C43   1.266       .  A
O32       Zn2149   2.011       .  S
O32          C41   1.275       .  A
O33          C43   1.276       .  A
O34       Zn3212   1.963       .  S
O34          C42   1.267       .  A
O35          C44   1.274       .  A
O36          C45   1.275       .  A
O37       Zn2150   1.953       .  S
O37          C44   1.266       .  A
O38       Zn1089   2.015   1_545  S
O38          C45   1.273       .  A
O39       Zn2151   2.006       .  S
O39          C46   1.275       .  A
O40          C46   1.274       .  A
C41         C884   1.483       .  S
C42         C956   1.473       .  S
C43         C980   1.477       .  S
C44         C932   1.472       .  S
C45         C899   1.486       .  S
C46         C860   1.482       .  S
C47          H48   1.110       .  S
C47          C53   1.555       .  S
C47          C52   1.553       .  S
C47          C51   1.556       .  S
C49          H50   1.112       .  S
C49          C55   1.523       .  S
C49          C54   1.525       .  S
C49          C56   1.518       .  S
C51          C54   1.379       .  D
C51         C779   1.495       .  S
C52          C55   1.371       .  D
C52         C803   1.489       .  S
C53          C56   1.372       .  D
C53         C827   1.490       .  S
C54         C731   1.485       .  S
C55         C707   1.479       .  S
C56         C755   1.475       .  S
C57          H58   1.110       .  S
C57        C3249   1.559   1_545  S
C57        C1124   1.551   1_545  S
C57        C2185   1.557       .  S
C59          H60   1.111       .  S
C59        C1127   1.520       .  S
C59        C2188   1.523   1_565  S
C59        C3252   1.519       .  S
C61        C2181   1.557   1_455  S
C61          C64   1.376       .  D
C61         C836   1.493       .  S
C62        C1119   1.551       .  S
C62          C65   1.368       .  D
C62         C812   1.488       .  S
C63        C3243   1.559   1_455  S
C63          C66   1.375       .  D
C63         C788   1.492       .  S
C64        C2183   1.523   1_445  S
C64         C692   1.486       .  S
C65        C1121   1.520       .  S
C65         C635   1.470       .  S
C66        C3245   1.519   1_455  S
C66         C668   1.480       .  S
C67          H68   1.110       .  S
C67          C73   1.556       .  S
C67          C72   1.556       .  S
C67          C71   1.558       .  S
C69          H70   1.112       .  S
C69          C75   1.522       .  S
C69          C74   1.521       .  S
C69          C76   1.521       .  S
C71          C74   1.374       .  D
C71         C620   1.493       .  S
C72          C75   1.375       .  D
C72         C563   1.496       .  S
C73          C76   1.373       .  D
C73         C596   1.495       .  S
C74         C539   1.481       .  S
C75         C500   1.478       .  S
C76         C515   1.477       .  S
C77          H78   1.112       .  S
C77          C83   1.520       .  S
C77          C82   1.519       .  S
C77          C81   1.518       .  S
C79          H80   1.110       .  S
C79          C85   1.558       .  S
C79          C84   1.559       .  S
C79          C86   1.561       .  S
C81          C84   1.374       .  D
C81        C1043   1.477       .  S
C82          C85   1.373       .  D
C82         C995   1.477       .  S
C83          C86   1.377       .  D
C83        C1028   1.481       .  S
C84         C611   1.494       .  S
C85         C572   1.495       .  S
C86         C587   1.500       .  S
Zn87         O91   1.926       .  S
Zn87         O92   1.990       .  S
Zn87         O96   1.969       .  S
Zn87        O103   1.983       .  S
Zn88         O91   1.952       .  S
Zn88         O93   2.011       .  S
Zn88         O95   2.023       .  S
Zn88         O99   2.006       .  S
Zn89         O91   1.955       .  S
Zn89         O94   2.028       .  S
Zn89         O97   2.000       .  S
Zn89        O100   2.015       .  S
Zn90         O91   1.949       .  S
Zn90         O98   2.006       .  S
Zn90        O101   2.002       .  S
Zn90        O102   2.014       .  S
O92         C104   1.270       .  A
O93         C105   1.273       .  A
O94         C106   1.275       .  A
O95         C104   1.274       .  A
O96         C106   1.268       .  A
O97         C105   1.272       .  A
O98         C107   1.272       .  A
O99         C108   1.273       .  A
O100        C107   1.274       .  A
O101        C108   1.272       .  A
O102        C109   1.273       .  A
O103        C109   1.270       .  A
C104        C548   1.484       .  S
C105        C467   1.477       .  S
C106        C491   1.482       .  S
C107        C419   1.482       .  S
C108        C452   1.478       .  S
C109        C524   1.481       .  S
Zn110      O3300   1.954       .  S
Zn110       O115   1.997       .  S
Zn110       O126   2.034       .  S
Zn110      O1181   2.015       .  S
Zn111      O1176   1.961   1_455  S
Zn111       O122   2.031       .  S
Zn111      O1178   2.009       .  S
Zn111      O2242   2.012   1_455  S
Zn112       O114   1.952   1_445  S
Zn112       O120   2.003       .  S
Zn112       O123   2.021       .  S
Zn112      O2241   2.011       .  S
Zn113       O114   1.925       .  S
Zn113       O121   1.983   1_665  S
Zn113      O1186   1.974   1_655  S
Zn113      O3311   1.980       .  S
O114      Zn3296   1.954       .  S
O114      Zn1173   1.961   1_655  S
O115        C127   1.271       .  A
O116      Zn1173   2.010       .  S
O116        C128   1.273   1_565  A
O117      Zn2236   2.012       .  S
O117        C129   1.273       .  A
O118      Zn2235   2.012       .  S
O118        C127   1.274       .  A
O119      Zn1172   2.015   1_545  S
O119        C129   1.274       .  A
O120        C128   1.273       .  A
O121        C130   1.269       .  A
O122        C131   1.275       .  A
O123        C130   1.274       .  A
O124      Zn1175   1.974   1_455  S
O124        C131   1.268       .  A
O125      Zn3299   1.980       .  S
O125        C132   1.269       .  A
O126        C132   1.276       .  A
C127        C443   1.480       .  S
C128        C476   1.482       .  S
C129        C428   1.486       .  S
C130        C764   1.480       .  S
C131        C740   1.481       .  S
C132        C716   1.485       .  S
C133        H134   1.110       .  S
C133        C139   1.556       .  S
C133        C138   1.559       .  S
C133        C137   1.560       .  S
C135        H136   1.112       .  S
C135        C141   1.517       .  S
C135        C140   1.519       .  S
C135        C142   1.522       .  S
C137        C140   1.374       .  D
C137        C395   1.494       .  S
C138        C141   1.373       .  D
C138        C356   1.492       .  S
C139        C142   1.374       .  D
C139        C380   1.499       .  S
C140        C908   1.481       .  S
C141        C875   1.478       .  S
C142        C851   1.472       .  S
C143        H144   1.113       .  S
C143        C147   1.516       .  S
C143       C2273   1.520       .  S
C143       C1210   1.518   1_545  S
C145       H2270   1.110       .  S
C145        C150   1.557       .  S
C145       C1213   1.559   1_545  S
C145       C2276   1.559       .  S
H146       C2269   1.110       .  S
C147        C150   1.374       .  D
C147        C308   1.477       .  S
C148       C1205   1.518       .  S
C148        C151   1.373       .  D
C148        C275   1.472       .  S
C149       C2267   1.520       .  S
C149        C152   1.376       .  D
C149        C332   1.481       .  S
C150        C347   1.492       .  S
C151       C1207   1.559       .  S
C151        C371   1.500       .  S
C152       C2269   1.559       .  S
C152        C404   1.496       .  S
Zn153       O157   1.962       .  S
Zn153       O158   2.016       .  S
Zn153       O162   2.002       .  S
Zn153       O169   2.026       .  S
Zn154       O157   1.935       .  S
Zn154       O159   1.990       .  S
Zn154       O161   1.988       .  S
Zn154       O165   2.006       .  S
Zn155       O157   1.967       .  S
Zn155       O160   2.008       .  S
Zn155       O163   2.038       .  S
Zn155       O166   2.015       .  S
Zn156       O157   1.944       .  S
Zn156       O164   1.991       .  S
Zn156       O167   2.024       .  S
Zn156       O168   2.006       .  S
O158        C170   1.275       .  A
O159        C171   1.270       .  A
O160        C172   1.273       .  A
O161        C170   1.270       .  A
O162        C172   1.272       .  A
O163        C171   1.275       .  A
O164        C173   1.271       .  A
O165        C174   1.273       .  A
O166        C173   1.273       .  A
O167        C174   1.275       .  A
O168        C175   1.272       .  A
O169        C175   1.273       .  A
C170        C644   1.480       .  S
C171        C683   1.489       .  S
C172        C212   1.480       .  S
C173        C251   1.472       .  S
C174        C659   1.487       .  S
C175        C227   1.482       .  S
Zn176       O180   1.962       .  S
Zn176       O181   2.021       .  S
Zn176       O185   2.029       .  S
Zn176       O192   2.014       .  S
Zn177       O180   1.961       .  S
Zn177       O182   2.036       .  S
Zn177       O184   2.019       .  S
Zn177       O188   2.029       .  S
Zn178       O180   1.929       .  S
Zn178       O183   1.985       .  S
Zn178       O186   1.978       .  S
Zn178       O189   1.987       .  S
Zn179       O180   1.945       .  S
Zn179       O187   2.010       .  S
Zn179       O190   1.982       .  S
Zn179       O191   1.991       .  S
O181        C193   1.274       .  A
O182        C194   1.276       .  A
O183        C195   1.269       .  A
O184        C193   1.275       .  A
O185        C195   1.276       .  A
O186        C194   1.269       .  A
O187        C196   1.272       .  A
O188        C197   1.275       .  A
O189        C196   1.269       .  A
O190        C197   1.269       .  A
O191        C198   1.271       .  A
O192        C198   1.273       .  A
C193        C236   1.488       .  S
C194        C323   1.484       .  S
C195        C299   1.485       .  S
C196        C284   1.482       .  S
C197        C203   1.479       .  S
C198        C260   1.475       .  S
C199        C200   1.401       .  A
C199        C204   1.395   1_556  A
C199        H209   1.083       .  S
C200        C205   1.484       .  S
C200        C201   1.412   1_556  A
C201        C202   1.400       .  A
C201        O206   1.372       .  S
C202        C203   1.404       .  A
C202        H207   1.083       .  S
C203        C204   1.413       .  A
C204        O208   1.372       .  S
C205        C210   1.409       .  A
C205        C214   1.404       .  A
O206        H222   0.992       .  S
O208        H219   0.992       .  S
C210        C211   1.399       .  A
C210        O215   1.373       .  S
C211        C212   1.406       .  A
C211        H216   1.084       .  S
C212        C213   1.410       .  A
C213        C214   1.397       .  A
C213        O217   1.371       .  S
C214        H218   1.083       .  S
O215        H220   0.992       .  S
O217        H221   0.992       .  S
C223        C224   1.401       .  A
C223        C228   1.397       .  A
C223        H233   1.083       .  S
C224       C1291   1.485       .  S
C224        C225   1.410       .  A
C225        C226   1.404       .  A
C225       O1292   1.371       .  S
C226        C227   1.406       .  A
C226        H231   1.083       .  S
C227        C228   1.412       .  A
C228        O232   1.372       .  S
C229       C1286   1.485   1_545  S
C229        C234   1.407       .  A
C229        C238   1.404       .  A
O230       C1287   1.371   1_545  S
O230        H246   0.992       .  S
O232        H243   0.992       .  S
C234        C235   1.399   1_556  A
C234        O239   1.372       .  S
C235        C236   1.407       .  A
C235        H240   1.083       .  S
C236        C237   1.414       .  A
C237        C238   1.403   1_554  A
C237        O241   1.371       .  S
C238        H242   1.084       .  S
O239        H244   0.992       .  S
O241        H245   0.992       .  S
C247        C248   1.403       .  A
C247        C252   1.400       .  A
C247       H2381   1.084   1_455  S
C248       C2377   1.473   1_455  S
C248        C249   1.405       .  A
C249        C250   1.396       .  A
C249        O254   1.373       .  S
C250        C251   1.405       .  A
C250        H255   1.084       .  S
C251        C252   1.408       .  A
C252        O256   1.371       .  S
C253       C2372   1.473       .  S
C253        C258   1.405       .  A
C253        C262   1.403   1_556  A
O254        H270   0.992       .  S
O256        H267   0.992       .  S
H257       C2371   1.084       .  S
C258        C259   1.393   1_556  A
C258        O263   1.372       .  S
C259        C260   1.405       .  A
C259        H264   1.084       .  S
C260        C261   1.410       .  A
C261        C262   1.400       .  A
C261        O265   1.371       .  S
C262       H2390   1.084       .  S
O263        H268   0.992       .  S
O265        H269   0.992       .  S
H266       C2386   1.084   1_455  S
C271        C272   1.403       .  A
C271        C276   1.395       .  A
C271        H281   1.084       .  S
C272        C277   1.471       .  S
C272        C273   1.406       .  A
C273        C274   1.397       .  A
C273        O278   1.372       .  S
C274        C275   1.401       .  A
C274        H279   1.084       .  S
C275        C276   1.405       .  A
C276        O280   1.372       .  S
C277        C282   1.406       .  A
C277        C286   1.398       .  A
O278        H294   0.992       .  S
O280        H291   0.992       .  S
C282        C283   1.397       .  A
C282        O287   1.372       .  S
C283        C284   1.407       .  A
C283        H288   1.083       .  S
C284        C285   1.415       .  A
C285        C286   1.395       .  A
C285        O289   1.372       .  S
C286        H290   1.084       .  S
O287        H292   0.992       .  S
O289        H293   0.992       .  S
C295        C296   1.398       .  A
C295        C300   1.397       .  A
C295        H305   1.084       .  S
C296        C301   1.473       .  S
C296        C297   1.405       .  A
C297        C298   1.400       .  A
C297        O302   1.372       .  S
C298        C299   1.407       .  A
C298        H303   1.083       .  S
C299        C300   1.417       .  A
C300        O304   1.372       .  S
C301        C306   1.406       .  A
C301        C310   1.402       .  A
O302        H318   0.992       .  S
O304        H315   0.992       .  S
C306        C307   1.398       .  A
C306        O311   1.372       .  S
C307        C308   1.401       .  A
C307        H312   1.084       .  S
C308        C309   1.407       .  A
C309        C310   1.400       .  A
C309       O1375   1.372   1_545  S
C310        H314   1.084       .  S
O311        H316   0.992       .  S
O313       C1371   1.372       .  S
O313        H317   0.992       .  S
C319        C320   1.398       .  A
C319        C324   1.396       .  A
C319        H329   1.084       .  S
C320        C325   1.474       .  S
C320        C321   1.406       .  A
C321        C322   1.401       .  A
C321        O326   1.372       .  S
C322        C323   1.406       .  A
C322        H327   1.083       .  S
C323        C324   1.417       .  A
C324        O328   1.372       .  S
C325        C330   1.405       .  A
C325        C334   1.403       .  A
O326        H342   0.992       .  S
O328        H339   0.992       .  S
C330        C331   1.399       .  A
C330        O335   1.372       .  S
C331        C332   1.402       .  A
C331       H1398   1.084   1_545  S
C332        C333   1.408       .  A
C333        C334   1.398       .  A
C333        O337   1.371       .  S
C334        H338   1.084       .  S
O335       H1402   0.992       .  S
H336       C1393   1.084       .  S
O337        H341   0.992       .  S
H340       O1397   0.992       .  S
C343        C344   1.410       .  A
C343        C348   1.409       .  A
C343        H353   1.083       .  S
C344        C349   1.494       .  S
C344        C345   1.409       .  A
C345        C346   1.400       .  A
C345        O350   1.372       .  S
C346        C347   1.406       .  A
C346        H351   1.084       .  S
C347        C348   1.407       .  A
C348       O1414   1.372   1_545  S
C349        C354   1.413       .  A
C349        C358   1.403       .  A
O350        H366   0.992       .  S
O352       C1410   1.372       .  S
O352        H363   0.991       .  S
C354        C355   1.409       .  A
C354        O359   1.371       .  S
C355        C356   1.403       .  A
C355        H360   1.083       .  S
C356        C357   1.412       .  A
C357        C358   1.400       .  A
C357        O361   1.372       .  S
C358        H362   1.084       .  S
O359        H364   0.992       .  S
O361        H365   0.991       .  S
C367        C368   1.411       .  A
C367        C372   1.411       .  A
C367        H377   1.083       .  S
C368        C373   1.503       .  S
C368        C369   1.411       .  A
C369        C370   1.404       .  A
C369        O374   1.372       .  S
C370        C371   1.407       .  A
C370        H375   1.084       .  S
C371        C372   1.408       .  A
C372       O2500   1.371       .  S
C373        C378   1.415       .  A
C373        C382   1.405       .  A
O374        H390   0.992       .  S
O376       C2496   1.371   1_455  S
O376        H387   0.992       .  S
C378        C379   1.411       .  A
C378        O383   1.371       .  S
C379        C380   1.405       .  A
C379        H384   1.083       .  S
C380        C381   1.411       .  A
C381        C382   1.404       .  A
C381        O385   1.372       .  S
C382        H386   1.083       .  S
O383        H388   0.992       .  S
O385        H389   0.991       .  S
C391        C392   1.406       .  A
C391        C396   1.402       .  A
C391        H401   1.083       .  S
C392        C397   1.499       .  S
C392        C393   1.414       .  A
C393        C394   1.409       .  A
C393        O398   1.371       .  S
C394        C395   1.404       .  A
C394        H399   1.083       .  S
C395        C396   1.410       .  A
C396        O400   1.372       .  S
C397        C402   1.410       .  A
C397        C406   1.411       .  A
O398        H414   0.992       .  S
O400        H411   0.992       .  S
C402        C403   1.400       .  A
C402        O407   1.371       .  S
C403        C404   1.405       .  A
C403        H408   1.084   1_545  S
C404        C405   1.409       .  A
C405        C406   1.411       .  A
C405        O409   1.372       .  S
C406        H410   1.083       .  S
O407        H412   0.992       .  S
O409        H413   0.992       .  S
C415        C416   1.402       .  A
C415        C420   1.400       .  A
C415        H425   1.083       .  S
C416        C421   1.484       .  S
C416        C417   1.409       .  A
C417        C418   1.398       .  A
C417        O422   1.372       .  S
C418        C419   1.405       .  A
C418        H423   1.083       .  S
C419        C420   1.414       .  A
C420        O424   1.372       .  S
C421        C426   1.408       .  A
C421        C430   1.403       .  A
O422        H438   0.992       .  S
O424        H435   0.992       .  S
C426        C427   1.401       .  A
C426        O431   1.372       .  S
C427        C428   1.409       .  A
C427       H2556   1.083       .  S
C428        C429   1.412       .  A
C429        C430   1.398       .  A
C429        O433   1.371       .  S
C430        H434   1.084       .  S
O431       H2560   0.992       .  S
H432       C2551   1.083   1_455  S
O433       H1499   0.992       .  S
H436       O2555   0.992       .  S
H437       O1495   0.992       .  S
C439        C440   1.401       .  A
C439        C444   1.397       .  A
C439        H449   1.083       .  S
C440        C445   1.479       .  S
C440        C441   1.409       .  A
C441        C442   1.397       .  A
C441        O446   1.372       .  S
C442        C443   1.405       .  A
C442       H2571   1.083       .  S
C443        C444   1.414       .  A
C444        O448   1.372       .  S
C445        C450   1.407       .  A
C445        C454   1.403       .  A
O446        H462   0.992       .  S
H447       C2566   1.083       .  S
O448        H459   0.992       .  S
C450        C451   1.397       .  A
C450        O455   1.372       .  S
C451        C452   1.406       .  A
C451        H456   1.083       .  S
C452        C453   1.411       .  A
C453        C454   1.397       .  A
C453        O457   1.372       .  S
C454        H458   1.084       .  S
O455        H460   0.992       .  S
O457        H461   0.992       .  S
C463        C464   1.404       .  A
C463        C468   1.398       .  A
C463        H473   1.083       .  S
C464        C469   1.478       .  S
C464        C465   1.406       .  A
C465        C466   1.396       .  A
C465        O470   1.372       .  S
C466        C467   1.406       .  A
C466        H471   1.084       .  S
C467        C468   1.410       .  A
C468        O472   1.372       .  S
C469        C474   1.406       .  A
C469        C478   1.401       .  A
O470        H486   0.992       .  S
O472        H483   0.992       .  S
C474        C475   1.398       .  A
C474        O479   1.373       .  S
C475        C476   1.407       .  A
C475        H480   1.083       .  S
C476        C477   1.414       .  A
C477        C478   1.398       .  A
C477       O1543   1.372   1_545  S
C478        H482   1.084       .  S
O479        H484   0.992       .  S
O481       C1539   1.372       .  S
O481        H485   0.992       .  S
C487        C492   1.393       .  A
C487       C1550   1.396   1_545  A
C487        H497   1.084       .  S
C488        C493   1.470       .  S
C488       C1549   1.396       .  A
C488       C1551   1.405       .  A
C489        C490   1.401   1_565  A
C489       C1550   1.405       .  A
C489       O1556   1.372       .  S
C490        C491   1.406       .  A
C490        H495   1.083       .  S
C491        C492   1.417       .  A
C492        O496   1.372       .  S
C493        C498   1.405       .  A
C493        C502   1.401       .  A
O494       C1551   1.372       .  S
O494        H510   0.992       .  S
O496        H507   0.992       .  S
C498        C499   1.399       .  A
C498        O503   1.372       .  S
C499        C500   1.402       .  A
C499        H504   1.084       .  S
C500        C501   1.407       .  A
C501        C502   1.396       .  A
C501        O505   1.371       .  S
C502        H506   1.084       .  S
O503        H508   0.992       .  S
O505        H509   0.990       .  S
C511        C512   1.400       .  A
C511        C516   1.395       .  A
C511        H521   1.084       .  S
C512        C517   1.469       .  S
C512        C513   1.406       .  A
C513        C514   1.397       .  A
C513        O518   1.372       .  S
C514        C515   1.402       .  A
C514        H519   1.083       .  S
C515        C516   1.408       .  A
C516        O520   1.371       .  S
C517        C526   1.400       .  A
C517       C2646   1.403   1_455  A
O518        H534   0.992   1_455  S
O520        H531   0.991       .  S
C522        C523   1.395       .  A
C522       C2641   1.403       .  A
C522        O527   1.372       .  S
C523        C524   1.409       .  A
C523        H528   1.083       .  S
C524        C525   1.413       .  A
C525       C2650   1.397       .  A
C525        O529   1.371       .  S
C526       C2649   1.397   1_455  A
C526        H530   1.084       .  S
O527        H532   0.992       .  S
O529        H533   0.992       .  S
C535        C536   1.402       .  A
C535        C540   1.396       .  A
C535        H545   1.084       .  S
C536        C541   1.478       .  S
C536        C537   1.408       .  A
C537        C538   1.400       .  A
C537        O542   1.372       .  S
C538        C539   1.404       .  A
C538        H543   1.083       .  S
C539        C540   1.405       .  A
C540        O544   1.371       .  S
C541        C546   1.406       .  A
C541        C550   1.403       .  A
O542        H558   0.992       .  S
O544        H555   0.991       .  S
C546        C547   1.398       .  A
C546        O551   1.372       .  S
C547        C548   1.410       .  A
C547        H552   1.083       .  S
C548        C549   1.412       .  A
C549        C550   1.397       .  A
C549        O553   1.371       .  S
C550        H554   1.084       .  S
O551        H556   0.992       .  S
O553        H557   0.992       .  S
C559        C560   1.405       .  A
C559        C564   1.402       .  A
C559        H569   1.083       .  S
C560       C1627   1.499       .  S
C560        C561   1.414       .  A
C561        C562   1.410       .  A
C561        O566   1.371       .  S
C562        C563   1.404       .  A
C562        H567   1.083       .  S
C563        C564   1.412       .  A
C564        O568   1.372       .  S
C565       C1622   1.499   1_545  S
C565        C570   1.410       .  A
C565        C574   1.410       .  A
O566       H1644   0.992       .  S
O568        H579   0.992       .  S
C570        C571   1.402       .  A
C570       O1637   1.372       .  S
C571        C572   1.405       .  A
C571        H576   1.084       .  S
C572        C573   1.408       .  A
C573        C574   1.411       .  A
C573        O577   1.372       .  S
C574        H578   1.083       .  S
O575       C1632   1.372       .  S
O575        H580   0.992       .  S
O577        H581   0.991       .  S
H582       O1628   0.992       .  S
C583        C584   1.411       .  A
C583        C588   1.412       .  A
C583        H593   1.083       .  S
C584       C2713   1.501       .  S
C584        C585   1.410       .  A
C585        C586   1.401       .  A
C585        O590   1.372       .  S
C586        C587   1.406       .  A
C586        H591   1.084       .  S
C587        C588   1.409       .  A
C588        O592   1.371       .  S
C589       C2708   1.501   1_455  S
C589        C594   1.415       .  A
C589        C598   1.405       .  A
O590       H2730   0.992       .  S
O592        H603   0.992       .  S
C594        C595   1.410       .  A
C594        O599   1.371       .  S
C595        C596   1.405       .  A
C595        H600   1.083       .  S
C596        C597   1.410       .  A
C597        C598   1.402       .  A
C597        O601   1.371       .  S
C598        H602   1.083       .  S
O599        H604   0.992       .  S
O601        H605   0.991       .  S
H606       O2714   0.992       .  S
C607        C608   1.410       .  A
C607        C612   1.410       .  A
C607        H617   1.083       .  S
C608        C613   1.500       .  S
C608        C609   1.411       .  A
C609        C610   1.402       .  A
C609        O614   1.371       .  S
C610        C611   1.404       .  A
C610        H615   1.084       .  S
C611        C612   1.409       .  A
C612        O616   1.371       .  S
C613        C618   1.415       .  A
C613        C622   1.405       .  A
O614        H630   0.992       .  S
O616        H627   0.992       .  S
C618        C619   1.410       .  A
C618        O623   1.371       .  S
C619        C620   1.403       .  A
C619        H624   1.083       .  S
C620        C621   1.411       .  A
C621        C622   1.401       .  A
C621        O625   1.372       .  S
C622        H626   1.083       .  S
O623        H628   0.992       .  S
O625        H629   0.991       .  S
C631        C632   1.400       .  A
C631        C636   1.397       .  A
C631        H641   1.084       .  S
C632        C637   1.468       .  S
C632        C633   1.406       .  A
C633        C634   1.397       .  A
C633        O638   1.371       .  S
C634        C635   1.400       .  A
C634        H639   1.084       .  S
C635        C636   1.404       .  A
C636       O1702   1.372       .  S
C637        C642   1.404       .  A
C637        C646   1.398       .  A
O638        H654   0.992       .  S
O640       C1698   1.372   1_545  S
O640        H651   0.992       .  S
C642        C643   1.397       .  A
C642        O647   1.372       .  S
C643        C644   1.406       .  A
C643        H648   1.083       .  S
C644        C645   1.416       .  A
C645        C646   1.396       .  A
C645        O649   1.372       .  S
C646        H650   1.084       .  S
O647        H652   0.992       .  S
O649        H653   0.992       .  S
C655        C656   1.402       .  A
C655        C660   1.400       .  A
C655        H665   1.084       .  S
C656        C661   1.477       .  S
C656        C657   1.404       .  A
C657        C658   1.399       .  A
C657        O662   1.373       .  S
C658        C659   1.409       .  A
C658        H663   1.083       .  S
C659        C660   1.414       .  A
C660        O664   1.371       .  S
C661        C666   1.409       .  A
C661        C670   1.400       .  A
O662        H678   0.992       .  S
O664        H675   0.992       .  S
C666        C667   1.399       .  A
C666        O671   1.371       .  S
C667        C668   1.403       .  A
C667        H672   1.083   1_455  S
C668        C669   1.408       .  A
C669        C670   1.396       .  A
C669        O673   1.372       .  S
C670        H674   1.084       .  S
O671        H676   0.992   1_455  S
O673        H677   0.992       .  S
C679        C680   1.398       .  A
C679        C684   1.395       .  A
C679        H689   1.084       .  S
C680        C685   1.478       .  S
C680        C681   1.408       .  A
C681        C682   1.404       .  A
C681        O686   1.373       .  S
C682        C683   1.408       .  A
C682        H687   1.083       .  S
C683        C684   1.417       .  A
C684        O688   1.372       .  S
C685        C690   1.406       .  A
C685        C694   1.404       .  A
O686        H702   0.992       .  S
O688        H699   0.992       .  S
C690        C691   1.397       .  A
C690        O695   1.372       .  S
C691        C692   1.401       .  A
C691       H2820   1.079   1_455  S
C692        C693   1.410       .  A
C693        C694   1.400       .  A
C693        O697   1.371       .  S
C694        H698   1.084       .  S
O695        H700   0.992       .  S
H696       C2815   1.079       .  S
O697        H701   0.991       .  S
C703        C704   1.399       .  A
C703        C708   1.398       .  A
C703        H713   1.084       .  S
C704        C709   1.476       .  S
C704        C705   1.409       .  A
C705        C706   1.401       .  A
C705        O710   1.371       .  S
C706        C707   1.402       .  A
C706        H711   1.084       .  S
C707        C708   1.406       .  A
C708        O712   1.372       .  S
C709        C714   1.407       .  A
C709        C718   1.398       .  A
O710        H726   0.992       .  S
O712        H723   0.992       .  S
C714        C715   1.401       .  A
C714        O719   1.372       .  S
C715        C716   1.406       .  A
C715        H720   1.083       .  S
C716        C717   1.418       .  A
C717        C718   1.396       .  A
C717        O721   1.372       .  S
C718        H722   1.084       .  S
O719        H724   0.992       .  S
O721        H725   0.992       .  S
C727        C728   1.401       .  A
C727        C732   1.399       .  A
C727        H737   1.084       .  S
C728        C733   1.468       .  S
C728        C729   1.402       .  A
C729        C730   1.393       .  A
C729        O734   1.372       .  S
C730        C731   1.402       .  A
C730        H735   1.075       .  S
C731        C732   1.411       .  A
C732        O736   1.371       .  S
C733        C738   1.406       .  A
C733        C742   1.396       .  A
O734        H750   0.992       .  S
O736        H747   0.992       .  S
C738        C739   1.398       .  A
C738        O743   1.372       .  S
C739        C740   1.406       .  A
C739        H744   1.083       .  S
C740        C741   1.417       .  A
C741        C742   1.396       .  A
C741       O1807   1.372       .  S
C742        H746   1.084       .  S
O743        H748   0.992       .  S
O745       C1803   1.372       .  S
O745        H749   0.992       .  S
C751        C752   1.404       .  A
C751        C756   1.399       .  A
C751        H761   1.084       .  S
C752        C757   1.479       .  S
C752        C753   1.409       .  A
C753        C754   1.399       .  A
C753        O758   1.373       .  S
C754        C755   1.400       .  A
C754        H759   1.084       .  S
C755        C756   1.404       .  A
C756        O760   1.372       .  S
C757        C762   1.409       .  A
C757        C766   1.401       .  A
O758        H774   0.992       .  S
O760        H771   0.992       .  S
C762        C763   1.398       .  A
C762        O767   1.371       .  S
C763        C764   1.405       .  A
C763        H768   1.083       .  S
C764        C765   1.414       .  A
C765        C766   1.397       .  A
C765        O769   1.372       .  S
C766        H770   1.084       .  S
O767        H772   0.992       .  S
O769        H773   0.992       .  S
C775        C776   1.410       .  A
C775        C780   1.410       .  A
C775        H785   1.083       .  S
C776        C781   1.497       .  S
C776        C777   1.409       .  A
C777        C778   1.401       .  A
C777        O782   1.371       .  S
C778        C779   1.405       .  A
C778        H783   1.084       .  S
C779        C780   1.408       .  A
C780        O784   1.371       .  S
C781        C786   1.413       .  A
C781        C790   1.404       .  A
O782        H798   0.992       .  S
O784        H795   0.992       .  S
C786        C787   1.410       .  A
C786        O791   1.372       .  S
C787        C788   1.404       .  A
C787        H792   1.083   1_455  S
C788        C789   1.409       .  A
C789        C790   1.403       .  A
C789       O1855   1.372       .  S
C790        H794   1.083       .  S
O791        H796   0.992       .  S
O793       C1851   1.372   1_545  S
O793        H797   0.991       .  S
C799        C800   1.408       .  A
C799        C804   1.397       .  A
C799        H809   1.083       .  S
C800        C805   1.503       .  S
C800        C801   1.417       .  A
C801        C802   1.410       .  A
C801        O806   1.373       .  S
C802        C803   1.401       .  A
C802        H807   1.080       .  S
C803        C804   1.405       .  A
C804        O808   1.370       .  S
C805        C810   1.418       .  A
C805        C814   1.406       .  A
O806        H822   0.992       .  S
O808        H819   0.992       .  S
C810        C811   1.408       .  A
C810        O815   1.371       .  S
C811        C812   1.402       .  A
C811        H816   1.083       .  S
C812        C813   1.405       .  A
C813        C814   1.398       .  A
C813        O817   1.369       .  S
C814        H818   1.083       .  S
O815        H820   0.992       .  S
O817       H1883   0.991       .  S
H821       O1879   0.991       .  S
C823        C824   1.407       .  A
C823        C828   1.406       .  A
C823        H833   1.083       .  S
C824        C829   1.491       .  S
C824        C825   1.409       .  A
C825        C826   1.401       .  A
C825        O830   1.372       .  S
C826        C827   1.405       .  A
C826        H831   1.084       .  S
C827        C828   1.406       .  A
C828        O832   1.369       .  S
C829        C834   1.413       .  A
C829        C838   1.401       .  A
O830        H846   0.992       .  S
O832        H843   0.992       .  S
C834        C835   1.409       .  A
C834        O839   1.372       .  S
C835        C836   1.403       .  A
C835        H840   1.083       .  S
C836        C837   1.412       .  A
C837        C838   1.401       .  A
C837        O841   1.373   1_455  S
C838        H842   1.084       .  S
O839        H844   0.992       .  S
O841       H2969   0.992       .  S
H845       O2965   0.992       .  S
C847        C848   1.404       .  A
C847        C852   1.399       .  A
C847        H857   1.083       .  S
C848        C853   1.480       .  S
C848        C849   1.410       .  A
C849        C850   1.394       .  A
C849        O854   1.372       .  S
C850        C851   1.399       .  A
C850        H855   1.084       .  S
C851        C852   1.405       .  A
C852        O856   1.374       .  S
C853        C858   1.408       .  A
C853        C862   1.402       .  A
O854        H870   0.992       .  S
O856        H867   0.992       .  S
C858        C859   1.398       .  A
C858        O863   1.373       .  S
C859        C860   1.406       .  A
C859        H864   1.083       .  S
C860        C861   1.413       .  A
C861        C862   1.397       .  A
C861        O865   1.372       .  S
C862        H866   1.084       .  S
O863        H868   0.992       .  S
O865        H869   0.992       .  S
C871        C872   1.403       .  A
C871        C876   1.397       .  A
C871        H881   1.083       .  S
C872        C877   1.478       .  S
C872        C873   1.409       .  A
C873        C874   1.397       .  A
C873        O878   1.372       .  S
C874        C875   1.401       .  A
C874        H879   1.084       .  S
C875        C876   1.407       .  A
C876        O880   1.371       .  S
C877        C882   1.408       .  A
C877        C886   1.401       .  A
O878        H894   0.992       .  S
O880        H891   0.991       .  S
C882        C883   1.399       .  A
C882        O887   1.372       .  S
C883        C884   1.407       .  A
C883        H888   1.083       .  S
C884        C885   1.414       .  A
C885        C886   1.397       .  A
C885        O889   1.372       .  S
C886        H890   1.084       .  S
O887        H892   0.992       .  S
O889        H893   0.992       .  S
C895        C896   1.404       .  A
C895        C900   1.401       .  A
C895        H905   1.083       .  S
C896        C901   1.487       .  S
C896        C897   1.410       .  A
C897        C898   1.397       .  A
C897        O902   1.372       .  S
C898        C899   1.405       .  A
C898        H903   1.083       .  S
C899        C900   1.414       .  A
C900        O904   1.371   1_545  S
C901        C906   1.410       .  A
C901        C910   1.406       .  A
O902        H918   0.992       .  S
O904        H915   0.992       .  S
C906        C907   1.400       .  A
C906        O911   1.372       .  S
C907        C908   1.402       .  A
C907        H912   1.083       .  S
C908        C909   1.405       .  A
C909        C910   1.400       .  A
C909        O913   1.373       .  S
C910        H914   1.083       .  S
O911        H916   0.992       .  S
O913        H917   0.992       .  S
C919        C920   1.401       .  A
C919        C924   1.398       .  A
C919        H929   1.084       .  S
C920        C925   1.471       .  S
C920        C921   1.404       .  A
C921        C922   1.395       .  A
C921        O926   1.372       .  S
C922        C923   1.408       .  A
C922        H927   1.083       .  S
C923        C924   1.413       .  A
C924        O928   1.372       .  S
C925        C930   1.408       .  A
C925        C934   1.397       .  A
O926        H942   0.992       .  S
O928        H939   0.992       .  S
C930        C931   1.401       .  A
C930        O935   1.372       .  S
C931        C932   1.403       .  A
C931        H936   1.083       .  S
C932        C933   1.412       .  A
C933        C934   1.393       .  A
C933        O937   1.373       .  S
C934        H938   1.084       .  S
O935        H940   0.992       .  S
O937       H3065   0.992       .  S
H941       O3061   0.992       .  S
C943        C944   1.401       .  A
C943        C948   1.397       .  A
C943        H953   1.084       .  S
C944        C949   1.482       .  S
C944        C945   1.408       .  A
C945        C946   1.400       .  A
C945        O950   1.372       .  S
C946        C947   1.408       .  A
C946        H951   1.083       .  S
C947        C948   1.416       .  A
C948        O952   1.372       .  S
C949        C954   1.407       .  A
C949        C958   1.407       .  A
O950        H966   0.992       .  S
O952        H963   0.992       .  S
C954        C955   1.394       .  A
C954        O959   1.372       .  S
C955        C956   1.403       .  A
C955        H960   1.084   1_455  S
C956        C957   1.408       .  A
C957        C958   1.404       .  A
C957        O961   1.372       .  S
C958        H962   1.083       .  S
O959        H964   0.992   1_455  S
O961        H965   0.992       .  S
C967        C968   1.400       .  A
C967        C972   1.398       .  A
C967        H977   1.084       .  S
C968        C973   1.476       .  S
C968        C969   1.406       .  A
C969        C970   1.398       .  A
C969        O974   1.372       .  S
C970        C971   1.408       .  A
C970        H975   1.083       .  S
C971        C972   1.416       .  A
C972        O976   1.372       .  S
C973        C978   1.403       .  A
C973        C982   1.405       .  A
O974        H990   0.992       .  S
O976        H987   0.992       .  S
C978        C979   1.394       .  A
C978        O983   1.372       .  S
C979        C980   1.407       .  A
C979        H984   1.084       .  S
C980        C981   1.408       .  A
C981        C982   1.403       .  A
C981        O985   1.371       .  S
C982        H986   1.084       .  S
O983        H988   0.992       .  S
O985       H2051   0.992       .  S
H989       O2047   0.992       .  S
C991        C992   1.404       .  A
C991        C996   1.398       .  A
C991       H1001   1.084       .  S
C992        C997   1.479       .  S
C992        C993   1.408       .  A
C993        C994   1.401       .  A
C993        O998   1.372       .  S
C994        C995   1.401       .  A
C994        H999   1.083       .  S
C995        C996   1.405       .  A
C996       O1000   1.371       .  S
C997       C2064   1.408       .  A
C997       C2068   1.399   1_545  A
O998       H1014   0.992       .  S
O1000      H1011   0.991       .  S
C1002      C1003   1.401       .  A
C1002      C2059   1.408       .  A
C1002      O1007   1.372       .  S
C1003      C1004   1.407       .  A
C1003      H1008   1.083       .  S
C1004      C1005   1.416       .  A
C1005      C1006   1.397       .  A
C1005      O1009   1.372       .  S
C1006      C2059   1.399       .  A
C1006      H2072   1.084       .  S
O1007      H1012   0.992       .  S
O1009      H1013   0.992       .  S
H1010      C2068   1.084       .  S
C1015      C1020   1.396       .  A
C1015      C3140   1.398   1_455  A
C1015      H3149   1.084       .  S
C1016      C1021   1.473       .  S
C1016      C3139   1.398       .  A
C1016      C3141   1.405       .  A
C1017      C1018   1.401   1_655  A
C1017      C3140   1.405       .  A
C1017      O1022   1.372       .  S
C1018      C1019   1.407       .  A
C1018      H1023   1.083       .  S
C1019      C1020   1.416       .  A
C1020      O1024   1.372       .  S
C1021      C1026   1.405       .  A
C1021      C1030   1.402       .  A
O1022      H3162   0.992       .  S
O1024      H1035   0.992       .  S
H1025      C3139   1.084       .  S
C1026      C1027   1.398       .  A
C1026      O1031   1.372       .  S
C1027      C1028   1.402       .  A
C1027      H1032   1.083       .  S
C1028      C1029   1.409       .  A
C1029      C1030   1.397       .  A
C1029      O1033   1.371       .  S
C1030      H1034   1.084       .  S
O1031      H1036   0.992       .  S
O1033      H1037   0.991       .  S
H1038      O3146   0.992       .  S
C1039      C1040   1.402       .  A
C1039      C1044   1.397       .  A
C1039      H1049   1.084       .  S
C1040      C1045   1.471       .  S
C1040      C1041   1.405       .  A
C1041      C1042   1.398       .  A
C1041      O1046   1.372       .  S
C1042      C1043   1.402       .  A
C1042      H1047   1.084       .  S
C1043      C1044   1.406       .  A
C1044      O1048   1.371       .  S
C1045      C1050   1.406       .  A
C1045      C1054   1.397       .  A
O1046      H1062   0.992       .  S
O1048      H1059   0.991       .  S
C1050      C1051   1.400       .  A
C1050      O1055   1.372       .  S
C1051      C1052   1.407       .  A
C1051      H1056   1.083       .  S
C1052      C1053   1.417       .  A
C1053      C1054   1.396       .  A
C1053      O1057   1.372       .  S
C1054      H1058   1.084       .  S
O1055      H1060   0.992       .  S
O1057      H1061   0.992       .  S
Zn1063     O1067   1.959       .  S
Zn1063     O1068   2.031       .  S
Zn1063     O1072   1.998       .  S
Zn1063     O1079   2.020       .  S
Zn1064     O1067   1.927       .  S
Zn1064     O1069   1.995       .  S
Zn1064     O1071   1.989       .  S
Zn1064     O1075   1.992       .  S
Zn1065     O1067   1.957       .  S
Zn1065     O1070   2.011       .  S
Zn1065     O1073   2.031       .  S
Zn1065     O1076   1.997       .  S
Zn1066     O1067   1.956       .  S
Zn1066     O1074   2.003       .  S
Zn1066     O1077   2.028       .  S
Zn1066     O1078   2.004       .  S
O1068      C1080   1.276       .  A
O1069      C1081   1.271       .  A
O1070      C1082   1.273       .  A
O1071      C1080   1.270       .  A
O1072      C1082   1.271       .  A
O1073      C1081   1.275       .  A
O1074      C1083   1.272       .  A
O1075      C1084   1.271       .  A
O1076      C1083   1.272       .  A
O1077      C1084   1.275       .  A
O1078      C1085   1.272       .  A
O1079      C1085   1.274       .  A
C1080      C2114   1.485       .  S
C1081      C2066   1.487       .  S
C1082      C2033   1.485       .  S
C1083      C1985   1.481       .  S
C1084      C2081   1.484       .  S
C1085      C2009   1.488       .  S
Zn1086     O1090   1.964   1_565  S
Zn1086     O1095   2.054       .  S
Zn1086     O1102   2.012       .  S
Zn1087     O2152   1.952       .  S
Zn1087     O1092   2.044       .  S
Zn1087     O3218   2.011   1_455  S
Zn1087     O1098   2.015       .  S
Zn1088     O1090   1.901       .  S
Zn1088     O1093   1.957   1_545  S
Zn1088     O2158   1.963       .  S
Zn1088     O3223   1.953   1_545  S
Zn1089     O3214   1.960   1_565  S
Zn1089     O1097   2.036       .  S
Zn1089     O3225   2.006   1_455  S
O1090     Zn2149   1.952       .  S
O1090     Zn3213   1.959   1_545  S
O1091      C1103   1.276       .  A
O1092      C1104   1.274       .  A
O1093      C1105   1.266       .  A
O1094     Zn3211   2.011       .  S
O1094      C1103   1.275       .  A
O1095      C1105   1.276       .  A
O1096     Zn2150   1.963       .  S
O1096      C1104   1.267       .  A
O1097      C1106   1.274       .  A
O1098      C1107   1.275       .  A
O1099     Zn3212   1.953   1_565  S
O1099      C1106   1.266       .  A
O1100      C1107   1.273       .  A
O1101     Zn3213   2.006       .  S
O1101      C1108   1.275       .  A
O1102      C1108   1.274       .  A
C1103      C1946   1.483       .  S
C1104      C2018   1.473       .  S
C1105      C2042   1.477       .  S
C1106      C1994   1.472       .  S
C1107      C1961   1.486       .  S
C1108      C1922   1.482       .  S
C1109      H1110   1.110       .  S
C1109      C1115   1.555       .  S
C1109      C1114   1.553       .  S
C1109      C1113   1.556       .  S
C1111      H1112   1.112       .  S
C1111      C1117   1.523       .  S
C1111      C1116   1.525       .  S
C1111      C1118   1.518       .  S
C1113      C1116   1.379       .  D
C1113      C1841   1.495       .  S
C1114      C1117   1.371       .  D
C1114      C1865   1.490       .  S
C1115      C1118   1.372       .  D
C1115      C1889   1.490       .  S
C1116      C1793   1.486       .  S
C1117      C1769   1.479       .  S
C1118      C1817   1.475       .  S
C1119      H1120   1.110       .  S
C1119      C2187   1.559       .  S
C1119      C3247   1.557       .  S
C1121      H1122   1.111       .  S
C1121      C3250   1.523       .  S
C1121      C2190   1.519       .  S
C1123      C3243   1.557   1_455  S
C1123      C1126   1.376       .  D
C1123      C1898   1.493       .  S
C1124      C1127   1.368       .  D
C1124      C1874   1.488       .  S
C1125      C2181   1.559   1_465  S
C1125      C1128   1.375       .  D
C1125      C1850   1.492       .  S
C1126      C3245   1.523   1_455  S
C1126      C1754   1.485       .  S
C1127      C1697   1.470       .  S
C1128      C2183   1.519   1_455  S
C1128      C1730   1.480       .  S
C1129      H1130   1.110       .  S
C1129      C1135   1.556       .  S
C1129      C1134   1.556       .  S
C1129      C1133   1.558       .  S
C1131      H1132   1.112       .  S
C1131      C1137   1.522       .  S
C1131      C1136   1.521       .  S
C1131      C1138   1.521       .  S
C1133      C1136   1.374       .  D
C1133      C1682   1.494       .  S
C1134      C1137   1.375       .  D
C1134      C1625   1.496       .  S
C1135      C1138   1.373       .  D
C1135      C1658   1.495       .  S
C1136      C1601   1.481       .  S
C1137      C1562   1.478       .  S
C1138      C1577   1.477       .  S
C1139      H1140   1.112       .  S
C1139      C1145   1.520       .  S
C1139      C1144   1.519       .  S
C1139      C1143   1.518       .  S
C1141      H1142   1.110       .  S
C1141      C1147   1.558       .  S
C1141      C1146   1.559       .  S
C1141      C1148   1.561       .  S
C1143      C1146   1.374       .  D
C1143      C2105   1.476       .  S
C1144      C1147   1.373       .  D
C1144      C2057   1.477       .  S
C1145      C1148   1.377       .  D
C1145      C2090   1.481       .  S
C1146      C1673   1.494       .  S
C1147      C1634   1.495       .  S
C1148      C1649   1.500       .  S
Zn1149     O1153   1.926       .  S
Zn1149     O1154   1.990       .  S
Zn1149     O1158   1.969       .  S
Zn1149     O1165   1.983       .  S
Zn1150     O1153   1.952       .  S
Zn1150     O1155   2.011       .  S
Zn1150     O1157   2.023       .  S
Zn1150     O1161   2.006       .  S
Zn1151     O1153   1.955       .  S
Zn1151     O1156   2.028       .  S
Zn1151     O1159   2.000       .  S
Zn1151     O1162   2.015       .  S
Zn1152     O1153   1.949       .  S
Zn1152     O1160   2.006       .  S
Zn1152     O1163   2.001       .  S
Zn1152     O1164   2.014       .  S
O1154      C1166   1.270       .  A
O1155      C1167   1.273       .  A
O1156      C1168   1.275       .  A
O1157      C1166   1.274       .  A
O1158      C1168   1.268       .  A
O1159      C1167   1.272       .  A
O1160      C1169   1.272       .  A
O1161      C1170   1.273       .  A
O1162      C1169   1.274       .  A
O1163      C1170   1.272       .  A
O1164      C1171   1.273       .  A
O1165      C1171   1.270       .  A
C1166      C1610   1.485       .  S
C1167      C1529   1.477       .  S
C1168      C1553   1.481       .  S
C1169      C1481   1.482       .  S
C1170      C1514   1.478       .  S
C1171      C1586   1.481       .  S
Zn1172     O2238   1.954       .  S
Zn1172     O1177   1.998       .  S
Zn1172     O1188   2.034       .  S
Zn1173     O3304   2.012   1_455  S
Zn1173     O1184   2.031       .  S
Zn1174     O1176   1.952   1_455  S
Zn1174     O3303   2.011       .  S
Zn1174     O1182   2.002       .  S
Zn1174     O1185   2.021       .  S
Zn1175     O1176   1.924       .  S
Zn1175     O1183   1.983   1_655  S
Zn1175     O2249   1.979       .  S
O1176     Zn2234   1.955       .  S
O1177      C1189   1.271       .  A
O1178      C1190   1.273       .  A
O1179     Zn3298   2.012       .  S
O1179      C1191   1.273       .  A
O1180     Zn3297   2.012       .  S
O1180      C1189   1.274       .  A
O1181      C1191   1.274       .  A
O1182      C1190   1.273       .  A
O1183      C1192   1.269       .  A
O1184      C1193   1.275       .  A
O1185      C1192   1.274       .  A
O1186      C1193   1.268       .  A
O1187     Zn2237   1.980       .  S
O1187      C1194   1.269       .  A
O1188      C1194   1.276       .  A
C1189      C1505   1.480       .  S
C1190      C1538   1.482       .  S
C1191      C1490   1.486       .  S
C1192      C1826   1.480       .  S
C1193      C1802   1.481       .  S
C1194      C1778   1.485       .  S
C1195      H1196   1.110       .  S
C1195      C1201   1.556       .  S
C1195      C1200   1.559       .  S
C1195      C1199   1.560       .  S
C1197      H1198   1.112       .  S
C1197      C1203   1.517       .  S
C1197      C1202   1.519       .  S
C1197      C1204   1.522       .  S
C1199      C1202   1.374       .  D
C1199      C1457   1.494       .  S
C1200      C1203   1.373       .  D
C1200      C1418   1.492       .  S
C1201      C1204   1.374       .  D
C1201      C1442   1.499       .  S
C1202      C1970   1.481       .  S
C1203      C1937   1.478       .  S
C1204      C1913   1.472       .  S
C1205      H1206   1.113       .  S
C1205      C3335   1.520       .  S
C1205      C1209   1.516       .  S
C1207      H3332   1.110       .  S
C1207      C1212   1.557       .  S
C1207      C3338   1.559       .  S
H1208      C3331   1.110       .  S
C1209      C1212   1.374       .  D
C1209      C1370   1.477       .  S
C1210      C1213   1.373       .  D
C1210      C1337   1.472       .  S
C1211      C3329   1.520       .  S
C1211      C1214   1.376       .  D
C1211      C1394   1.481       .  S
C1212      C1409   1.492       .  S
C1213      C1433   1.500       .  S
C1214      C3331   1.559       .  S
C1214      C1466   1.495       .  S
Zn1215     O1219   1.962       .  S
Zn1215     O1220   2.016       .  S
Zn1215     O1224   2.002       .  S
Zn1215     O1231   2.026       .  S
Zn1216     O1219   1.935       .  S
Zn1216     O1221   1.990       .  S
Zn1216     O1223   1.988       .  S
Zn1216     O1227   2.005       .  S
Zn1217     O1219   1.968       .  S
Zn1217     O1222   2.009       .  S
Zn1217     O1225   2.038       .  S
Zn1217     O1228   2.016       .  S
Zn1218     O1219   1.944       .  S
Zn1218     O1226   1.991       .  S
Zn1218     O1229   2.024       .  S
Zn1218     O1230   2.006       .  S
O1220      C1232   1.275       .  A
O1221      C1233   1.270       .  A
O1222      C1234   1.273       .  A
O1223      C1232   1.270       .  A
O1224      C1234   1.272       .  A
O1225      C1233   1.276       .  A
O1226      C1235   1.271       .  A
O1227      C1236   1.273       .  A
O1228      C1235   1.273       .  A
O1229      C1236   1.275       .  A
O1230      C1237   1.272       .  A
O1231      C1237   1.273       .  A
C1232      C1706   1.480       .  S
C1233      C1745   1.489       .  S
C1234      C1274   1.480       .  S
C1235      C1313   1.472       .  S
C1236      C1721   1.487       .  S
C1237      C1289   1.482       .  S
Zn1238     O1242   1.962       .  S
Zn1238     O1243   2.020       .  S
Zn1238     O1247   2.029       .  S
Zn1238     O1254   2.014       .  S
Zn1239     O1242   1.961       .  S
Zn1239     O1244   2.036       .  S
Zn1239     O1246   2.019       .  S
Zn1239     O1250   2.029       .  S
Zn1240     O1242   1.929       .  S
Zn1240     O1245   1.986       .  S
Zn1240     O1248   1.978       .  S
Zn1240     O1251   1.987       .  S
Zn1241     O1242   1.945       .  S
Zn1241     O1249   2.009       .  S
Zn1241     O1252   1.983       .  S
Zn1241     O1253   1.991       .  S
O1243      C1255   1.274       .  A
O1244      C1256   1.276       .  A
O1245      C1257   1.270       .  A
O1246      C1255   1.275       .  A
O1247      C1257   1.276       .  A
O1248      C1256   1.269       .  A
O1249      C1258   1.272       .  A
O1250      C1259   1.275       .  A
O1251      C1258   1.269       .  A
O1252      C1259   1.269       .  A
O1253      C1260   1.271       .  A
O1254      C1260   1.273       .  A
C1255      C1298   1.488       .  S
C1256      C1385   1.484       .  S
C1257      C1361   1.485       .  S
C1258      C1346   1.481       .  S
C1259      C1265   1.480       .  S
C1260      C1322   1.475       .  S
C1261      C1262   1.401       .  A
C1261      C1266   1.395   1_556  A
C1261      H1271   1.083       .  S
C1262      C1267   1.484       .  S
C1262      C1263   1.412   1_556  A
C1263      C1264   1.400       .  A
C1263      O1268   1.372       .  S
C1264      C1265   1.404       .  A
C1264      H1269   1.083       .  S
C1265      C1266   1.413       .  A
C1266      O1270   1.372       .  S
C1267      C1272   1.409       .  A
C1267      C1276   1.404       .  A
O1268      H1284   0.992       .  S
O1270      H1281   0.992       .  S
C1272      C1273   1.399       .  A
C1272      O1277   1.373       .  S
C1273      C1274   1.406       .  A
C1273      H1278   1.084       .  S
C1274      C1275   1.410       .  A
C1275      C1276   1.397       .  A
C1275      O1279   1.371       .  S
C1276      H1280   1.083       .  S
O1277      H1282   0.992       .  S
O1279      H1283   0.992       .  S
C1285      C1286   1.401       .  A
C1285      C1290   1.397       .  A
C1285      H1295   1.083       .  S
C1286      C1287   1.410       .  A
C1287      C1288   1.404       .  A
C1288      C1289   1.406       .  A
C1288      H1293   1.083       .  S
C1289      C1290   1.412       .  A
C1290      O1294   1.372       .  S
C1291      C1296   1.407       .  A
C1291      C1300   1.404       .  A
O1292      H1308   0.992       .  S
O1294      H1305   0.992       .  S
C1296      C1297   1.399   1_556  A
C1296      O1301   1.372       .  S
C1297      C1298   1.407       .  A
C1297      H1302   1.083       .  S
C1298      C1299   1.414       .  A
C1299      C1300   1.403   1_554  A
C1299      O1303   1.371       .  S
C1300      H1304   1.084       .  S
O1301      H1306   0.992       .  S
O1303      H1307   0.992       .  S
C1309      C1310   1.403       .  A
C1309      C1314   1.400       .  A
C1309      H3443   1.084   1_455  S
C1310      C3439   1.473   1_455  S
C1310      C1311   1.405       .  A
C1311      C1312   1.396       .  A
C1311      O1316   1.373       .  S
C1312      C1313   1.405       .  A
C1312      H1317   1.084       .  S
C1313      C1314   1.408       .  A
C1314      O1318   1.371       .  S
C1315      C3434   1.473       .  S
C1315      C1320   1.405       .  A
C1315      C1324   1.403   1_556  A
O1316      H1332   0.992       .  S
O1318      H1329   0.992       .  S
H1319      C3433   1.084       .  S
C1320      C1321   1.393   1_556  A
C1320      O1325   1.372       .  S
C1321      C1322   1.405       .  A
C1321      H1326   1.084       .  S
C1322      C1323   1.410       .  A
C1323      C1324   1.400       .  A
C1323      O1327   1.371       .  S
C1324      H3452   1.084       .  S
O1325      H1330   0.992       .  S
O1327      H1331   0.992       .  S
H1328      C3448   1.084   1_455  S
C1333      C1334   1.403       .  A
C1333      C1338   1.395       .  A
C1333      H1343   1.084       .  S
C1334      C1339   1.471       .  S
C1334      C1335   1.406       .  A
C1335      C1336   1.397       .  A
C1335      O1340   1.372       .  S
C1336      C1337   1.401       .  A
C1336      H1341   1.084       .  S
C1337      C1338   1.405       .  A
C1338      O1342   1.372       .  S
C1339      C1344   1.406       .  A
C1339      C1348   1.398       .  A
O1340      H1356   0.992       .  S
O1342      H1353   0.992       .  S
C1344      C1345   1.397       .  A
C1344      O1349   1.372       .  S
C1345      C1346   1.407       .  A
C1345      H1350   1.083       .  S
C1346      C1347   1.415       .  A
C1347      C1348   1.395       .  A
C1347      O1351   1.372       .  S
C1348      H1352   1.084       .  S
O1349      H1354   0.992       .  S
O1351      H1355   0.992       .  S
C1357      C1358   1.398       .  A
C1357      C1362   1.397       .  A
C1357      H1367   1.084       .  S
C1358      C1363   1.474       .  S
C1358      C1359   1.405       .  A
C1359      C1360   1.400       .  A
C1359      O1364   1.372       .  S
C1360      C1361   1.407       .  A
C1360      H1365   1.083       .  S
C1361      C1362   1.417       .  A
C1362      O1366   1.372       .  S
C1363      C1368   1.406       .  A
C1363      C1372   1.402       .  A
O1364      H1380   0.992       .  S
O1366      H1377   0.992       .  S
C1368      C1369   1.398       .  A
C1368      O1373   1.372       .  S
C1369      C1370   1.401       .  A
C1369      H1374   1.084       .  S
C1370      C1371   1.407       .  A
C1371      C1372   1.400       .  A
C1372      H1376   1.084       .  S
O1373      H1378   0.992       .  S
O1375      H1379   0.992   1_565  S
C1381      C1382   1.398       .  A
C1381      C1386   1.396       .  A
C1381      H1391   1.084       .  S
C1382      C1387   1.474       .  S
C1382      C1383   1.406       .  A
C1383      C1384   1.401       .  A
C1383      O1388   1.372       .  S
C1384      C1385   1.406       .  A
C1384      H1389   1.083       .  S
C1385      C1386   1.417       .  A
C1386      O1390   1.372       .  S
C1387      C1392   1.405       .  A
C1387      C1396   1.403       .  A
O1388      H1404   0.992       .  S
O1390      H1401   0.992       .  S
C1392      C1393   1.399       .  A
C1392      O1397   1.372       .  S
C1393      C1394   1.402       .  A
C1394      C1395   1.408       .  A
C1395      C1396   1.398       .  A
C1395      O1399   1.371       .  S
C1396      H1400   1.084       .  S
O1399      H1403   0.992       .  S
C1405      C1406   1.410       .  A
C1405      C1410   1.409       .  A
C1405      H1415   1.083       .  S
C1406      C1411   1.494       .  S
C1406      C1407   1.409       .  A
C1407      C1408   1.400       .  A
C1407      O1412   1.372       .  S
C1408      C1409   1.406       .  A
C1408      H1413   1.084       .  S
C1409      C1410   1.407       .  A
C1411      C1416   1.413       .  A
C1411      C1420   1.403       .  A
O1412      H1428   0.992       .  S
O1414      H1425   0.991       .  S
C1416      C1417   1.409       .  A
C1416      O1421   1.371       .  S
C1417      C1418   1.403       .  A
C1417      H1422   1.083       .  S
C1418      C1419   1.412       .  A
C1419      C1420   1.400       .  A
C1419      O1423   1.372       .  S
C1420      H1424   1.084       .  S
O1421      H1426   0.992       .  S
O1423      H1427   0.991       .  S
C1429      C1430   1.411       .  A
C1429      C1434   1.411       .  A
C1429      H1439   1.083       .  S
C1430      C1435   1.503       .  S
C1430      C1431   1.411       .  A
C1431      C1432   1.404       .  A
C1431      O1436   1.372       .  S
C1432      C1433   1.407       .  A
C1432      H1437   1.084       .  S
C1433      C1434   1.408       .  A
C1434      O3562   1.371       .  S
C1435      C1440   1.415       .  A
C1435      C1444   1.405       .  A
O1436      H1452   0.992       .  S
O1438      C3558   1.371   1_455  S
O1438      H1449   0.992       .  S
C1440      C1441   1.411       .  A
C1440      O1445   1.371       .  S
C1441      C1442   1.405       .  A
C1441      H1446   1.083       .  S
C1442      C1443   1.411       .  A
C1443      C1444   1.404       .  A
C1443      O1447   1.372       .  S
C1444      H1448   1.083       .  S
O1445      H1450   0.992       .  S
O1447      H1451   0.991       .  S
C1453      C1454   1.406       .  A
C1453      C1458   1.402       .  A
C1453      H1463   1.083       .  S
C1454      C1459   1.499       .  S
C1454      C1455   1.414       .  A
C1455      C1456   1.409       .  A
C1455      O1460   1.371       .  S
C1456      C1457   1.404       .  A
C1456      H1461   1.083       .  S
C1457      C1458   1.410       .  A
C1458      O1462   1.372       .  S
C1459      C1464   1.410       .  A
C1459      C1468   1.411       .  A
O1460      H1476   0.992       .  S
O1462      H1473   0.992       .  S
C1464      C1465   1.400       .  A
C1464      O1469   1.371       .  S
C1465      C1466   1.405       .  A
C1465      H1470   1.084       .  S
C1466      C1467   1.409       .  A
C1467      C1468   1.411       .  A
C1467      O1471   1.372       .  S
C1468      H1472   1.083       .  S
O1469      H1474   0.992       .  S
O1471      H1475   0.992       .  S
C1477      C1478   1.402       .  A
C1477      C1482   1.400       .  A
C1477      H1487   1.083       .  S
C1478      C1483   1.484       .  S
C1478      C1479   1.409       .  A
C1479      C1480   1.398       .  A
C1479      O1484   1.372       .  S
C1480      C1481   1.405       .  A
C1480      H1485   1.083       .  S
C1481      C1482   1.414       .  A
C1482      O1486   1.372       .  S
C1483      C1488   1.408       .  A
C1483      C1492   1.403       .  A
O1484      H1500   0.992       .  S
O1486      H1497   0.992       .  S
C1488      C1489   1.401       .  A
C1488      O1493   1.372       .  S
C1489      C1490   1.409       .  A
C1489      H3618   1.083       .  S
C1490      C1491   1.412       .  A
C1491      C1492   1.398       .  A
C1491      O1495   1.371       .  S
C1492      H1496   1.084       .  S
O1493      H3622   0.992       .  S
H1494      C3613   1.083   1_455  S
H1498      O3617   0.992       .  S
C1501      C1502   1.401       .  A
C1501      C1506   1.397       .  A
C1501      H1511   1.083       .  S
C1502      C1507   1.479       .  S
C1502      C1503   1.409       .  A
C1503      C1504   1.397       .  A
C1503      O1508   1.372       .  S
C1504      C1505   1.405       .  A
C1504      H3633   1.083       .  S
C1505      C1506   1.414       .  A
C1506      O1510   1.372       .  S
C1507      C1512   1.407       .  A
C1507      C1516   1.403       .  A
O1508      H1524   0.992       .  S
H1509      C3628   1.083       .  S
O1510      H1521   0.992       .  S
C1512      C1513   1.397       .  A
C1512      O1517   1.372       .  S
C1513      C1514   1.406       .  A
C1513      H1518   1.083       .  S
C1514      C1515   1.411       .  A
C1515      C1516   1.397       .  A
C1515      O1519   1.372       .  S
C1516      H1520   1.084       .  S
O1517      H1522   0.992       .  S
O1519      H1523   0.992       .  S
C1525      C1526   1.404       .  A
C1525      C1530   1.398       .  A
C1525      H1535   1.083       .  S
C1526      C1531   1.477       .  S
C1526      C1527   1.406       .  A
C1527      C1528   1.396       .  A
C1527      O1532   1.372       .  S
C1528      C1529   1.406       .  A
C1528      H1533   1.084       .  S
C1529      C1530   1.410       .  A
C1530      O1534   1.372       .  S
C1531      C1536   1.406       .  A
C1531      C1540   1.401       .  A
O1532      H1548   0.992       .  S
O1534      H1545   0.992       .  S
C1536      C1537   1.398       .  A
C1536      O1541   1.373       .  S
C1537      C1538   1.407       .  A
C1537      H1542   1.083       .  S
C1538      C1539   1.414       .  A
C1539      C1540   1.397       .  A
C1540      H1544   1.084       .  S
O1541      H1546   0.992       .  S
O1543      H1547   0.992       .  S
C1549      C1554   1.393       .  A
C1549      H1559   1.084       .  S
C1550      C1555   1.470       .  S
C1551      C1552   1.401       .  A
C1552      C1553   1.406       .  A
C1552      H1557   1.083       .  S
C1553      C1554   1.417       .  A
C1554      O1558   1.372       .  S
C1555      C1560   1.405       .  A
C1555      C1564   1.401       .  A
O1556      H1572   0.992       .  S
O1558      H1569   0.992       .  S
C1560      C1561   1.399       .  A
C1560      O1565   1.372       .  S
C1561      C1562   1.402       .  A
C1561      H1566   1.084       .  S
C1562      C1563   1.408       .  A
C1563      C1564   1.396       .  A
C1563      O1567   1.371       .  S
C1564      H1568   1.084       .  S
O1565      H1570   0.992       .  S
O1567      H1571   0.990       .  S
C1573      C1574   1.400       .  A
C1573      C1578   1.395       .  A
C1573      H1583   1.084       .  S
C1574      C1579   1.469       .  S
C1574      C1575   1.406       .  A
C1575      C1576   1.397       .  A
C1575      O1580   1.372       .  S
C1576      C1577   1.402       .  A
C1576      H1581   1.083       .  S
C1577      C1578   1.408       .  A
C1578      O1582   1.371       .  S
C1579      C3708   1.403   1_455  A
C1579      C1588   1.400       .  A
O1580      H1596   0.992   1_455  S
O1582      H1593   0.991       .  S
C1584      C3703   1.403       .  A
C1584      C1585   1.395       .  A
C1584      O1589   1.372       .  S
C1585      C1586   1.409       .  A
C1585      H1590   1.083       .  S
C1586      C1587   1.413       .  A
C1587      C3712   1.397       .  A
C1587      O1591   1.371       .  S
C1588      C3711   1.397   1_455  A
C1588      H1592   1.084       .  S
O1589      H1594   0.992       .  S
O1591      H1595   0.992       .  S
C1597      C1598   1.402       .  A
C1597      C1602   1.396       .  A
C1597      H1607   1.084       .  S
C1598      C1603   1.478       .  S
C1598      C1599   1.408       .  A
C1599      C1600   1.400       .  A
C1599      O1604   1.373       .  S
C1600      C1601   1.404       .  A
C1600      H1605   1.083       .  S
C1601      C1602   1.405       .  A
C1602      O1606   1.371       .  S
C1603      C1608   1.406       .  A
C1603      C1612   1.403       .  A
O1604      H1620   0.992       .  S
O1606      H1617   0.991       .  S
C1608      C1609   1.398       .  A
C1608      O1613   1.372       .  S
C1609      C1610   1.410       .  A
C1609      H1614   1.083       .  S
C1610      C1611   1.412       .  A
C1611      C1612   1.398       .  A
C1611      O1615   1.371       .  S
C1612      H1616   1.084       .  S
O1613      H1618   0.992       .  S
O1615      H1619   0.992       .  S
C1621      C1622   1.405       .  A
C1621      C1626   1.402       .  A
C1621      H1631   1.083       .  S
C1622      C1623   1.414       .  A
C1623      C1624   1.410       .  A
C1623      O1628   1.371       .  S
C1624      C1625   1.404       .  A
C1624      H1629   1.083       .  S
C1625      C1626   1.412       .  A
C1626      O1630   1.372       .  S
C1627      C1632   1.410       .  A
C1627      C1636   1.410       .  A
O1630      H1641   0.992       .  S
C1632      C1633   1.402       .  A
C1633      C1634   1.405       .  A
C1633      H1638   1.084       .  S
C1634      C1635   1.408       .  A
C1635      C1636   1.411       .  A
C1635      O1639   1.372       .  S
C1636      H1640   1.083       .  S
O1637      H1642   0.992       .  S
O1639      H1643   0.991       .  S
C1645      C1646   1.411       .  A
C1645      C1650   1.412       .  A
C1645      H1655   1.083       .  S
C1646      C3775   1.501       .  S
C1646      C1647   1.410       .  A
C1647      C1648   1.401       .  A
C1647      O1652   1.372       .  S
C1648      C1649   1.406       .  A
C1648      H1653   1.084       .  S
C1649      C1650   1.409       .  A
C1650      O1654   1.371       .  S
C1651      C3770   1.501   1_455  S
C1651      C1656   1.415       .  A
C1651      C1660   1.405       .  A
O1652      H3792   0.992       .  S
O1654      H1665   0.992       .  S
C1656      C1657   1.411       .  A
C1656      O1661   1.371       .  S
C1657      C1658   1.405       .  A
C1657      H1662   1.083       .  S
C1658      C1659   1.410       .  A
C1659      C1660   1.402       .  A
C1659      O1663   1.371       .  S
C1660      H1664   1.083       .  S
O1661      H1666   0.992       .  S
O1663      H1667   0.991       .  S
H1668      O3776   0.992       .  S
C1669      C1670   1.410       .  A
C1669      C1674   1.410       .  A
C1669      H1679   1.083       .  S
C1670      C1675   1.500       .  S
C1670      C1671   1.411       .  A
C1671      C1672   1.402       .  A
C1671      O1676   1.371       .  S
C1672      C1673   1.404       .  A
C1672      H1677   1.084       .  S
C1673      C1674   1.409       .  A
C1674      O1678   1.371       .  S
C1675      C1680   1.415       .  A
C1675      C1684   1.405       .  A
O1676      H1692   0.992       .  S
O1678      H1689   0.992       .  S
C1680      C1681   1.410       .  A
C1680      O1685   1.371       .  S
C1681      C1682   1.403       .  A
C1681      H1686   1.083       .  S
C1682      C1683   1.411       .  A
C1683      C1684   1.401       .  A
C1683      O1687   1.372       .  S
C1684      H1688   1.083       .  S
O1685      H1690   0.992       .  S
O1687      H1691   0.991       .  S
C1693      C1694   1.400       .  A
C1693      C1698   1.397       .  A
C1693      H1703   1.084       .  S
C1694      C1699   1.468       .  S
C1694      C1695   1.406       .  A
C1695      C1696   1.397       .  A
C1695      O1700   1.371       .  S
C1696      C1697   1.400       .  A
C1696      H1701   1.084       .  S
C1697      C1698   1.404       .  A
C1699      C1704   1.404       .  A
C1699      C1708   1.397       .  A
O1700      H1716   0.992       .  S
O1702      H1713   0.992       .  S
C1704      C1705   1.397       .  A
C1704      O1709   1.372       .  S
C1705      C1706   1.406       .  A
C1705      H1710   1.083       .  S
C1706      C1707   1.416       .  A
C1707      C1708   1.396       .  A
C1707      O1711   1.372       .  S
C1708      H1712   1.084       .  S
O1709      H1714   0.992       .  S
O1711      H1715   0.992       .  S
C1717      C1718   1.402       .  A
C1717      C1722   1.400       .  A
C1717      H1727   1.084       .  S
C1718      C1723   1.476       .  S
C1718      C1719   1.404       .  A
C1719      C1720   1.399       .  A
C1719      O1724   1.373       .  S
C1720      C1721   1.409       .  A
C1720      H1725   1.083       .  S
C1721      C1722   1.414       .  A
C1722      O1726   1.371       .  S
C1723      C1728   1.409       .  A
C1723      C1732   1.400       .  A
O1724      H1740   0.992       .  S
O1726      H1737   0.992       .  S
C1728      C1729   1.399       .  A
C1728      O1733   1.371       .  S
C1729      C1730   1.403       .  A
C1729      H1734   1.083   1_455  S
C1730      C1731   1.408       .  A
C1731      C1732   1.396       .  A
C1731      O1735   1.372   1_565  S
C1732      H1736   1.084       .  S
O1733      H1738   0.992   1_455  S
O1735      H1739   0.992       .  S
C1741      C1742   1.398       .  A
C1741      C1746   1.395       .  A
C1741      H1751   1.084       .  S
C1742      C1747   1.478       .  S
C1742      C1743   1.408       .  A
C1743      C1744   1.404       .  A
C1743      O1748   1.373       .  S
C1744      C1745   1.408       .  A
C1744      H1749   1.083       .  S
C1745      C1746   1.417       .  A
C1746      O1750   1.372       .  S
C1747      C1752   1.406       .  A
C1747      C1756   1.404       .  A
O1748      H1764   0.992       .  S
O1750      H1761   0.992       .  S
C1752      C1753   1.397       .  A
C1752      O1757   1.372       .  S
C1753      C1754   1.401       .  A
C1753      H3882   1.079   1_455  S
C1754      C1755   1.410       .  A
C1755      C1756   1.399       .  A
C1755      O1759   1.371       .  S
C1756      H1760   1.084       .  S
O1757      H1762   0.992       .  S
H1758      C3877   1.078       .  S
O1759      H1763   0.991       .  S
C1765      C1766   1.399       .  A
C1765      C1770   1.398       .  A
C1765      H1775   1.084       .  S
C1766      C1771   1.475       .  S
C1766      C1767   1.409       .  A
C1767      C1768   1.401       .  A
C1767      O1772   1.371       .  S
C1768      C1769   1.402       .  A
C1768      H1773   1.084       .  S
C1769      C1770   1.406       .  A
C1770      O1774   1.372       .  S
C1771      C1776   1.407       .  A
C1771      C1780   1.397       .  A
O1772      H1788   0.992       .  S
O1774      H1785   0.992       .  S
C1776      C1777   1.401       .  A
C1776      O1781   1.372       .  S
C1777      C1778   1.406       .  A
C1777      H1782   1.083       .  S
C1778      C1779   1.418       .  A
C1779      C1780   1.396       .  A
C1779      O1783   1.372       .  S
C1780      H1784   1.084       .  S
O1781      H1786   0.992       .  S
O1783      H1787   0.992       .  S
C1789      C1790   1.401       .  A
C1789      C1794   1.399       .  A
C1789      H1799   1.084       .  S
C1790      C1795   1.468       .  S
C1790      C1791   1.402       .  A
C1791      C1792   1.392       .  A
C1791      O1796   1.372       .  S
C1792      C1793   1.402       .  A
C1792      H1797   1.075       .  S
C1793      C1794   1.411       .  A
C1794      O1798   1.371       .  S
C1795      C1800   1.406       .  A
C1795      C1804   1.396       .  A
O1796      H1812   0.992       .  S
O1798      H1809   0.992       .  S
C1800      C1801   1.398       .  A
C1800      O1805   1.372       .  S
C1801      C1802   1.406       .  A
C1801      H1806   1.083       .  S
C1802      C1803   1.417       .  A
C1803      C1804   1.396       .  A
C1804      H1808   1.084       .  S
O1805      H1810   0.992       .  S
O1807      H1811   0.992       .  S
C1813      C1814   1.404       .  A
C1813      C1818   1.399       .  A
C1813      H1823   1.084       .  S
C1814      C1819   1.479       .  S
C1814      C1815   1.409       .  A
C1815      C1816   1.399       .  A
C1815      O1820   1.373       .  S
C1816      C1817   1.400       .  A
C1816      H1821   1.084       .  S
C1817      C1818   1.404       .  A
C1818      O1822   1.372       .  S
C1819      C1824   1.409       .  A
C1819      C1828   1.401       .  A
O1820      H1836   0.992       .  S
O1822      H1833   0.992       .  S
C1824      C1825   1.398       .  A
C1824      O1829   1.371       .  S
C1825      C1826   1.404       .  A
C1825      H1830   1.083       .  S
C1826      C1827   1.414       .  A
C1827      C1828   1.397       .  A
C1827      O1831   1.372       .  S
C1828      H1832   1.084       .  S
O1829      H1834   0.992       .  S
O1831      H1835   0.992       .  S
C1837      C1838   1.410       .  A
C1837      C1842   1.410       .  A
C1837      H1847   1.083       .  S
C1838      C1843   1.497       .  S
C1838      C1839   1.410       .  A
C1839      C1840   1.401       .  A
C1839      O1844   1.371       .  S
C1840      C1841   1.405       .  A
C1840      H1845   1.084       .  S
C1841      C1842   1.408       .  A
C1842      O1846   1.371       .  S
C1843      C1848   1.413       .  A
C1843      C1852   1.404       .  A
O1844      H1860   0.992       .  S
O1846      H1857   0.992       .  S
C1848      C1849   1.410       .  A
C1848      O1853   1.372       .  S
C1849      C1850   1.404       .  A
C1849      H1854   1.083   1_455  S
C1850      C1851   1.409       .  A
C1851      C1852   1.404       .  A
C1852      H1856   1.083       .  S
O1853      H1858   0.992       .  S
O1855      H1859   0.991       .  S
C1861      C1862   1.408       .  A
C1861      C1866   1.397       .  A
C1861      H1871   1.083       .  S
C1862      C1867   1.503       .  S
C1862      C1863   1.417       .  A
C1863      C1864   1.410       .  A
C1863      O1868   1.373       .  S
C1864      C1865   1.401       .  A
C1864      H1869   1.080       .  S
C1865      C1866   1.405       .  A
C1866      O1870   1.370       .  S
C1867      C1872   1.418       .  A
C1867      C1876   1.407       .  A
O1868      H1884   0.992       .  S
O1870      H1881   0.992       .  S
C1872      C1873   1.408       .  A
C1872      O1877   1.371       .  S
C1873      C1874   1.402       .  A
C1873      H1878   1.083       .  S
C1874      C1875   1.405       .  A
C1875      C1876   1.398       .  A
C1875      O1879   1.369   1_565  S
C1876      H1880   1.083       .  S
O1877      H1882   0.992       .  S
C1885      C1886   1.407       .  A
C1885      C1890   1.406       .  A
C1885      H1895   1.083       .  S
C1886      C1891   1.491       .  S
C1886      C1887   1.409       .  A
C1887      C1888   1.401       .  A
C1887      O1892   1.372       .  S
C1888      C1889   1.405       .  A
C1888      H1893   1.084       .  S
C1889      C1890   1.406       .  A
C1890      O1894   1.369       .  S
C1891      C1896   1.413       .  A
C1891      C1900   1.401       .  A
O1892      H1908   0.992       .  S
O1894      H1905   0.992       .  S
C1896      C1897   1.409       .  A
C1896      O1901   1.372       .  S
C1897      C1898   1.403       .  A
C1897      H1902   1.083       .  S
C1898      C1899   1.412       .  A
C1899      C1900   1.400       .  A
C1899      O1903   1.373   1_455  S
C1900      H1904   1.084       .  S
O1901      H1906   0.992       .  S
O1903      H4031   0.992       .  S
H1907      O4027   0.992       .  S
C1909      C1910   1.404       .  A
C1909      C1914   1.399       .  A
C1909      H1919   1.083       .  S
C1910      C1915   1.479       .  S
C1910      C1911   1.410       .  A
C1911      C1912   1.394       .  A
C1911      O1916   1.372       .  S
C1912      C1913   1.399       .  A
C1912      H1917   1.084       .  S
C1913      C1914   1.405       .  A
C1914      O1918   1.374       .  S
C1915      C1920   1.408       .  A
C1915      C1924   1.402       .  A
O1916      H1932   0.992       .  S
O1918      H1929   0.992       .  S
C1920      C1921   1.398       .  A
C1920      O1925   1.373       .  S
C1921      C1922   1.406       .  A
C1921      H1926   1.083       .  S
C1922      C1923   1.413       .  A
C1923      C1924   1.397       .  A
C1923      O1927   1.372       .  S
C1924      H1928   1.084       .  S
O1925      H1930   0.992       .  S
O1927      H1931   0.992       .  S
C1933      C1934   1.403       .  A
C1933      C1938   1.398       .  A
C1933      H1943   1.083       .  S
C1934      C1939   1.478       .  S
C1934      C1935   1.409       .  A
C1935      C1936   1.397       .  A
C1935      O1940   1.372       .  S
C1936      C1937   1.401       .  A
C1936      H1941   1.084       .  S
C1937      C1938   1.407       .  A
C1938      O1942   1.371       .  S
C1939      C1944   1.408       .  A
C1939      C1948   1.401       .  A
O1940      H1956   0.992       .  S
O1942      H1953   0.991       .  S
C1944      C1945   1.399       .  A
C1944      O1949   1.372       .  S
C1945      C1946   1.407       .  A
C1945      H1950   1.083       .  S
C1946      C1947   1.414       .  A
C1947      C1948   1.397       .  A
C1947      O1951   1.372       .  S
C1948      H1952   1.084       .  S
O1949      H1954   0.992       .  S
O1951      H1955   0.992       .  S
C1957      C1958   1.404       .  A
C1957      C1962   1.401       .  A
C1957      H1967   1.083       .  S
C1958      C1963   1.487       .  S
C1958      C1959   1.410       .  A
C1959      C1960   1.397       .  A
C1959      O1964   1.372       .  S
C1960      C1961   1.405       .  A
C1960      H1965   1.083       .  S
C1961      C1962   1.414       .  A
C1962      O1966   1.371       .  S
C1963      C1968   1.410       .  A
C1963      C1972   1.406       .  A
O1964      H1980   0.992       .  S
O1966      H1977   0.992       .  S
C1968      C1969   1.400       .  A
C1968      O1973   1.372       .  S
C1969      C1970   1.402       .  A
C1969      H1974   1.083       .  S
C1970      C1971   1.405       .  A
C1971      C1972   1.400       .  A
C1971      O1975   1.373       .  S
C1972      H1976   1.083       .  S
O1973      H1978   0.992       .  S
O1975      H1979   0.992       .  S
C1981      C1982   1.401       .  A
C1981      C1986   1.398       .  A
C1981      H1991   1.084       .  S
C1982      C1987   1.471       .  S
C1982      C1983   1.404       .  A
C1983      C1984   1.395       .  A
C1983      O1988   1.372       .  S
C1984      C1985   1.408       .  A
C1984      H1989   1.083       .  S
C1985      C1986   1.413       .  A
C1986      O1990   1.372       .  S
C1987      C1992   1.408       .  A
C1987      C1996   1.397       .  A
O1988      H2004   0.992       .  S
O1990      H2001   0.992       .  S
C1992      C1993   1.401       .  A
C1992      O1997   1.372       .  S
C1993      C1994   1.403       .  A
C1993      H1998   1.083       .  S
C1994      C1995   1.412       .  A
C1995      C1996   1.393       .  A
C1995      O1999   1.373   1_565  S
C1996      H2000   1.084       .  S
O1997      H2002   0.992       .  S
O1999      H4127   0.992       .  S
H2003      O4123   0.992       .  S
C2005      C2006   1.401       .  A
C2005      C2010   1.398       .  A
C2005      H2015   1.084       .  S
C2006      C2011   1.482       .  S
C2006      C2007   1.408       .  A
C2007      C2008   1.400       .  A
C2007      O2012   1.372       .  S
C2008      C2009   1.408       .  A
C2008      H2013   1.083       .  S
C2009      C2010   1.416       .  A
C2010      O2014   1.372       .  S
C2011      C2016   1.407       .  A
C2011      C2020   1.407       .  A
O2012      H2028   0.992       .  S
O2014      H2025   0.992       .  S
C2016      C2017   1.394       .  A
C2016      O2021   1.372       .  S
C2017      C2018   1.403       .  A
C2017      H2022   1.084   1_455  S
C2018      C2019   1.408       .  A
C2019      C2020   1.404       .  A
C2019      O2023   1.372       .  S
C2020      H2024   1.083       .  S
O2021      H2026   0.992   1_455  S
O2023      H2027   0.992       .  S
C2029      C2030   1.400       .  A
C2029      C2034   1.398       .  A
C2029      H2039   1.084       .  S
C2030      C2035   1.476       .  S
C2030      C2031   1.406       .  A
C2031      C2032   1.398       .  A
C2031      O2036   1.372       .  S
C2032      C2033   1.408       .  A
C2032      H2037   1.083       .  S
C2033      C2034   1.416       .  A
C2034      O2038   1.372       .  S
C2035      C2040   1.403       .  A
C2035      C2044   1.405       .  A
O2036      H2052   0.992       .  S
O2038      H2049   0.992       .  S
C2040      C2041   1.394       .  A
C2040      O2045   1.372       .  S
C2041      C2042   1.407       .  A
C2041      H2046   1.084       .  S
C2042      C2043   1.408       .  A
C2043      C2044   1.403       .  A
C2043      O2047   1.371       .  S
C2044      H2048   1.084       .  S
O2045      H2050   0.992       .  S
C2053      C2054   1.404       .  A
C2053      C2058   1.398       .  A
C2053      H2063   1.084       .  S
C2054      C2059   1.479       .  S
C2054      C2055   1.408       .  A
C2055      C2056   1.401       .  A
C2055      O2060   1.372       .  S
C2056      C2057   1.401       .  A
C2056      H2061   1.083       .  S
C2057      C2058   1.405       .  A
C2058      O2062   1.371       .  S
O2060      H2076   0.992       .  S
O2062      H2073   0.991       .  S
C2064      C2065   1.401   1_545  A
C2064      O2069   1.372       .  S
C2065      C2066   1.407       .  A
C2065      H2070   1.083       .  S
C2066      C2067   1.416       .  A
C2067      C2068   1.397       .  A
C2067      O2071   1.372       .  S
O2069      H2074   0.992       .  S
O2071      H2075   0.992       .  S
C2077      C4202   1.398   1_455  A
C2077      C2082   1.396       .  A
C2077      H4211   1.084       .  S
C2078      C2083   1.473       .  S
C2078      C4201   1.398       .  A
C2078      C4203   1.405       .  A
C2079      C4202   1.405       .  A
C2079      C2080   1.402   1_655  A
C2079      O2084   1.372       .  S
C2080      C2081   1.407       .  A
C2080      H2085   1.083       .  S
C2081      C2082   1.416       .  A
C2082      O2086   1.372       .  S
C2083      C2088   1.405       .  A
C2083      C2092   1.402       .  A
O2084      H4224   0.992       .  S
O2086      H2097   0.992       .  S
H2087      C4201   1.084       .  S
C2088      C2089   1.398       .  A
C2088      O2093   1.372       .  S
C2089      C2090   1.402       .  A
C2089      H2094   1.083       .  S
C2090      C2091   1.409       .  A
C2091      C2092   1.397       .  A
C2091      O2095   1.371       .  S
C2092      H2096   1.084       .  S
O2093      H2098   0.992       .  S
O2095      H2099   0.991       .  S
H2100      O4208   0.992       .  S
C2101      C2102   1.402       .  A
C2101      C2106   1.397       .  A
C2101      H2111   1.084       .  S
C2102      C2107   1.471       .  S
C2102      C2103   1.405       .  A
C2103      C2104   1.398       .  A
C2103      O2108   1.372       .  S
C2104      C2105   1.402       .  A
C2104      H2109   1.084       .  S
C2105      C2106   1.406       .  A
C2106      O2110   1.371       .  S
C2107      C2112   1.405       .  A
C2107      C2116   1.397       .  A
O2108      H2124   0.992       .  S
O2110      H2121   0.991       .  S
C2112      C2113   1.400       .  A
C2112      O2117   1.372       .  S
C2113      C2114   1.407       .  A
C2113      H2118   1.083       .  S
C2114      C2115   1.417       .  A
C2115      C2116   1.396       .  A
C2115      O2119   1.372       .  S
C2116      H2120   1.084       .  S
O2117      H2122   0.992       .  S
O2119      H2123   0.992       .  S
Zn2125     O2129   1.959       .  S
Zn2125     O2130   2.031       .  S
Zn2125     O2134   1.998       .  S
Zn2125     O2141   2.020       .  S
Zn2126     O2129   1.927       .  S
Zn2126     O2131   1.995       .  S
Zn2126     O2133   1.989       .  S
Zn2126     O2137   1.992       .  S
Zn2127     O2129   1.957       .  S
Zn2127     O2132   2.011       .  S
Zn2127     O2135   2.032       .  S
Zn2127     O2138   1.997       .  S
Zn2128     O2129   1.956       .  S
Zn2128     O2136   2.004       .  S
Zn2128     O2139   2.029       .  S
Zn2128     O2140   2.005       .  S
O2130      C2142   1.276       .  A
O2131      C2143   1.271       .  A
O2132      C2144   1.273       .  A
O2133      C2142   1.270       .  A
O2134      C2144   1.271       .  A
O2135      C2143   1.275       .  A
O2136      C2145   1.272       .  A
O2137      C2146   1.271       .  A
O2138      C2145   1.272       .  A
O2139      C2146   1.275       .  A
O2140      C2147   1.272       .  A
O2141      C2147   1.274       .  A
C2142      C3176   1.485       .  S
C2143      C3128   1.487       .  S
C2144      C3095   1.485       .  S
C2145      C3047   1.481       .  S
C2146      C3143   1.484       .  S
C2147      C3071   1.488       .  S
Zn2148     O2152   1.963   1_655  S
Zn2148     O3215   2.020       .  S
Zn2148     O2157   2.054       .  S
Zn2148     O2164   2.012       .  S
Zn2149     O2154   2.044       .  S
Zn2149     O2160   2.015       .  S
Zn2150     O2152   1.901       .  S
Zn2150     O2155   1.957   1_455  S
Zn2151     O2159   2.037       .  S
Zn2151     O3224   2.015       .  S
O2153     Zn3210   2.020   1_545  S
O2153      C2165   1.276       .  A
O2154      C2166   1.274       .  A
O2155      C2167   1.266       .  A
O2156      C2165   1.275       .  A
O2157      C2167   1.276       .  A
O2158      C2166   1.267       .  A
O2159      C2168   1.274       .  A
O2160      C2169   1.275       .  A
O2161      C2168   1.266       .  A
O2162     Zn3213   2.015   1_545  S
O2162      C2169   1.273       .  A
O2163      C2170   1.275       .  A
O2164      C2170   1.274       .  A
C2165      C3008   1.483       .  S
C2166      C3080   1.473       .  S
C2167      C3104   1.477       .  S
C2168      C3056   1.472       .  S
C2169      C3023   1.486       .  S
C2170      C2984   1.482       .  S
C2171      H2172   1.110       .  S
C2171      C2177   1.555       .  S
C2171      C2176   1.553       .  S
C2171      C2175   1.556       .  S
C2173      H2174   1.112       .  S
C2173      C2179   1.523       .  S
C2173      C2178   1.526       .  S
C2173      C2180   1.518       .  S
C2175      C2178   1.379       .  D
C2175      C2903   1.495       .  S
C2176      C2179   1.371       .  D
C2176      C2927   1.490       .  S
C2177      C2180   1.372       .  D
C2177      C2951   1.490       .  S
C2178      C2855   1.486       .  S
C2179      C2831   1.479       .  S
C2180      C2879   1.475       .  S
C2181      H2182   1.110   1_655  S
C2181      C3248   1.551   1_545  S
C2183      H2184   1.111       .  S
C2183      C3251   1.520       .  S
C2185      C2188   1.376       .  D
C2185      C2960   1.493       .  S
C2186      C3243   1.550       .  S
C2186      C2189   1.368       .  D
C2186      C2936   1.488       .  S
C2187      C2190   1.375       .  D
C2187      C2912   1.492       .  S
C2188      C2816   1.485       .  S
C2189      C3245   1.520       .  S
C2189      C2759   1.470       .  S
C2190      C2792   1.480       .  S
C2191      H2192   1.110       .  S
C2191      C2197   1.556       .  S
C2191      C2196   1.556       .  S
C2191      C2195   1.558       .  S
C2193      H2194   1.112       .  S
C2193      C2199   1.523       .  S
C2193      C2198   1.521       .  S
C2193      C2200   1.521       .  S
C2195      C2198   1.374       .  D
C2195      C2744   1.493       .  S
C2196      C2199   1.375       .  D
C2196      C2687   1.496       .  S
C2197      C2200   1.373       .  D
C2197      C2720   1.495       .  S
C2198      C2663   1.481       .  S
C2199      C2624   1.478       .  S
C2200      C2639   1.477       .  S
C2201      H2202   1.112       .  S
C2201      C2207   1.520       .  S
C2201      C2206   1.518       .  S
C2201      C2205   1.518       .  S
C2203      H2204   1.110       .  S
C2203      C2209   1.558       .  S
C2203      C2208   1.559       .  S
C2203      C2210   1.561       .  S
C2205      C2208   1.374       .  D
C2205      C3167   1.476       .  S
C2206      C2209   1.373       .  D
C2206      C3119   1.477       .  S
C2207      C2210   1.377       .  D
C2207      C3152   1.481       .  S
C2208      C2735   1.494       .  S
C2209      C2696   1.495       .  S
C2210      C2711   1.500       .  S
Zn2211     O2215   1.926       .  S
Zn2211     O2216   1.990       .  S
Zn2211     O2220   1.969       .  S
Zn2211     O2227   1.983       .  S
Zn2212     O2215   1.952       .  S
Zn2212     O2217   2.011       .  S
Zn2212     O2219   2.023       .  S
Zn2212     O2223   2.006       .  S
Zn2213     O2215   1.955       .  S
Zn2213     O2218   2.028       .  S
Zn2213     O2221   2.000       .  S
Zn2213     O2224   2.015       .  S
Zn2214     O2215   1.949       .  S
Zn2214     O2222   2.006       .  S
Zn2214     O2225   2.001       .  S
Zn2214     O2226   2.013       .  S
O2216      C2228   1.270       .  A
O2217      C2229   1.273       .  A
O2218      C2230   1.275       .  A
O2219      C2228   1.274       .  A
O2220      C2230   1.268       .  A
O2221      C2229   1.272       .  A
O2222      C2231   1.272       .  A
O2223      C2232   1.273       .  A
O2224      C2231   1.274       .  A
O2225      C2232   1.272       .  A
O2226      C2233   1.273       .  A
O2227      C2233   1.270       .  A
C2228      C2672   1.485       .  S
C2229      C2591   1.477       .  S
C2230      C2615   1.481       .  S
C2231      C2543   1.482       .  S
C2232      C2576   1.478       .  S
C2233      C2648   1.481       .  S
Zn2234     O2239   1.998       .  S
Zn2234     O3305   2.015       .  S
Zn2234     O2250   2.035       .  S
Zn2235     O3300   1.961       .  S
Zn2235     O3302   2.010       .  S
Zn2235     O2246   2.031       .  S
Zn2236     O2238   1.952   1_545  S
Zn2236     O2244   2.002       .  S
Zn2236     O2247   2.021       .  S
Zn2237     O2238   1.925       .  S
Zn2237     O2245   1.984   1_565  S
Zn2237     O3310   1.974       .  S
O2238     Zn3297   1.961       .  S
O2239      C2251   1.271       .  A
O2240     Zn3297   2.009       .  S
O2240      C2252   1.273   1_565  A
O2241      C2253   1.273   1_455  A
O2242      C2251   1.274       .  A
O2243     Zn3296   2.015   1_545  S
O2243      C2253   1.274       .  A
O2244      C2252   1.273       .  A
O2245      C2254   1.269       .  A
O2246      C2255   1.275       .  A
O2247      C2254   1.274       .  A
O2248     Zn3299   1.974       .  S
O2248      C2255   1.268       .  A
O2249      C2256   1.269       .  A
O2250      C2256   1.276       .  A
C2251      C2567   1.480       .  S
C2252      C2600   1.482       .  S
C2253      C2552   1.486       .  S
C2254      C2888   1.480       .  S
C2255      C2864   1.480       .  S
C2256      C2840   1.486       .  S
C2257      H2258   1.110       .  S
C2257      C2263   1.556       .  S
C2257      C2262   1.559       .  S
C2257      C2261   1.560       .  S
C2259      H2260   1.112       .  S
C2259      C2265   1.517       .  S
C2259      C2264   1.519       .  S
C2259      C2266   1.522       .  S
C2261      C2264   1.374       .  D
C2261      C2519   1.494       .  S
C2262      C2265   1.373       .  D
C2262      C2480   1.492       .  S
C2263      C2266   1.374       .  D
C2263      C2504   1.499       .  S
C2264      C3032   1.481       .  S
C2265      C2999   1.478       .  S
C2266      C2975   1.472       .  S
C2267      H2268   1.113       .  S
C2267      C3334   1.518   1_445  S
C2267      C2271   1.516   1_455  S
C2269      C3337   1.559   1_445  S
C2269      C2274   1.557   1_455  S
C2271      C2274   1.374       .  D
C2271      C2432   1.477       .  S
C2272      C3329   1.518   1_655  S
C2272      C2275   1.373       .  D
C2272      C2399   1.472       .  S
C2273      C2276   1.376       .  D
C2273      C2456   1.481       .  S
C2274      C2471   1.492       .  S
C2275      C3331   1.559   1_655  S
C2275      C2495   1.500       .  S
C2276      C2528   1.496       .  S
Zn2277     O2281   1.962       .  S
Zn2277     O2282   2.016       .  S
Zn2277     O2286   2.002       .  S
Zn2277     O2293   2.026       .  S
Zn2278     O2281   1.935       .  S
Zn2278     O2283   1.990       .  S
Zn2278     O2285   1.988       .  S
Zn2278     O2289   2.005       .  S
Zn2279     O2281   1.967       .  S
Zn2279     O2284   2.009       .  S
Zn2279     O2287   2.038       .  S
Zn2279     O2290   2.016       .  S
Zn2280     O2281   1.944       .  S
Zn2280     O2288   1.991       .  S
Zn2280     O2291   2.024       .  S
Zn2280     O2292   2.006       .  S
O2282      C2294   1.275       .  A
O2283      C2295   1.270       .  A
O2284      C2296   1.273       .  A
O2285      C2294   1.270       .  A
O2286      C2296   1.272       .  A
O2287      C2295   1.276       .  A
O2288      C2297   1.271       .  A
O2289      C2298   1.273       .  A
O2290      C2297   1.273       .  A
O2291      C2298   1.275       .  A
O2292      C2299   1.272       .  A
O2293      C2299   1.273       .  A
C2294      C2768   1.480       .  S
C2295      C2807   1.489       .  S
C2296      C2336   1.480       .  S
C2297      C2375   1.472       .  S
C2298      C2783   1.487       .  S
C2299      C2351   1.482       .  S
Zn2300     O2304   1.962       .  S
Zn2300     O2305   2.020       .  S
Zn2300     O2309   2.029       .  S
Zn2300     O2316   2.014       .  S
Zn2301     O2304   1.961       .  S
Zn2301     O2306   2.036       .  S
Zn2301     O2308   2.019       .  S
Zn2301     O2312   2.030       .  S
Zn2302     O2304   1.929       .  S
Zn2302     O2307   1.986       .  S
Zn2302     O2310   1.978       .  S
Zn2302     O2313   1.988       .  S
Zn2303     O2304   1.945       .  S
Zn2303     O2311   2.010       .  S
Zn2303     O2314   1.983       .  S
Zn2303     O2315   1.991       .  S
O2305      C2317   1.274       .  A
O2306      C2318   1.276       .  A
O2307      C2319   1.270       .  A
O2308      C2317   1.275       .  A
O2309      C2319   1.276       .  A
O2310      C2318   1.269       .  A
O2311      C2320   1.272       .  A
O2312      C2321   1.275       .  A
O2313      C2320   1.269       .  A
O2314      C2321   1.269       .  A
O2315      C2322   1.271       .  A
O2316      C2322   1.273       .  A
C2317      C2360   1.488       .  S
C2318      C2447   1.484       .  S
C2319      C2423   1.485       .  S
C2320      C2408   1.482       .  S
C2321      C2327   1.480       .  S
C2322      C2384   1.475       .  S
C2323      C2324   1.401       .  A
C2323      C2328   1.395   1_556  A
C2323      H2333   1.083       .  S
C2324      C2329   1.484       .  S
C2324      C2325   1.412   1_556  A
C2325      C2326   1.400       .  A
C2325      O2330   1.372       .  S
C2326      C2327   1.404       .  A
C2326      H2331   1.083       .  S
C2327      C2328   1.413       .  A
C2328      O2332   1.372       .  S
C2329      C2334   1.409       .  A
C2329      C2338   1.404       .  A
O2330      H2346   0.992       .  S
O2332      H2343   0.992       .  S
C2334      C2335   1.399       .  A
C2334      O2339   1.373       .  S
C2335      C2336   1.406       .  A
C2335      H2340   1.084       .  S
C2336      C2337   1.410       .  A
C2337      C2338   1.397       .  A
C2337      O2341   1.371       .  S
C2338      H2342   1.083       .  S
O2339      H2344   0.992       .  S
O2341      H2345   0.992       .  S
C2347      C2348   1.401       .  A
C2347      C2352   1.397       .  A
C2347      H2357   1.083       .  S
C2348      C3415   1.485       .  S
C2348      C2349   1.410       .  A
C2349      C2350   1.404       .  A
C2349      O3416   1.371       .  S
C2350      C2351   1.406       .  A
C2350      H2355   1.083       .  S
C2351      C2352   1.412       .  A
C2352      O2356   1.372       .  S
C2353      C3410   1.485   1_545  S
C2353      C2358   1.407       .  A
C2353      C2362   1.404       .  A
O2354      C3411   1.371   1_545  S
O2354      H2370   0.992       .  S
O2356      H2367   0.992       .  S
C2358      C2359   1.399   1_556  A
C2358      O2363   1.372       .  S
C2359      C2360   1.407       .  A
C2359      H2364   1.083       .  S
C2360      C2361   1.414       .  A
C2361      C2362   1.403   1_554  A
C2361      O2365   1.371       .  S
C2362      H2366   1.084       .  S
O2363      H2368   0.992       .  S
O2365      H2369   0.992       .  S
C2371      C2372   1.403       .  A
C2371      C2376   1.400       .  A
C2372      C2373   1.405       .  A
C2373      C2374   1.396       .  A
C2373      O2378   1.373       .  S
C2374      C2375   1.405       .  A
C2374      H2379   1.084       .  S
C2375      C2376   1.408       .  A
C2376      O2380   1.371       .  S
C2377      C2382   1.405       .  A
C2377      C2386   1.403   1_556  A
O2378      H2394   0.992       .  S
O2380      H2391   0.992       .  S
C2382      C2383   1.393   1_556  A
C2382      O2387   1.372       .  S
C2383      C2384   1.405       .  A
C2383      H2388   1.084       .  S
C2384      C2385   1.410       .  A
C2385      C2386   1.400       .  A
C2385      O2389   1.371       .  S
O2387      H2392   0.992       .  S
O2389      H2393   0.992       .  S
C2395      C2396   1.403       .  A
C2395      C2400   1.395       .  A
C2395      H2405   1.084       .  S
C2396      C2401   1.471       .  S
C2396      C2397   1.406       .  A
C2397      C2398   1.397       .  A
C2397      O2402   1.372       .  S
C2398      C2399   1.401       .  A
C2398      H2403   1.084       .  S
C2399      C2400   1.405       .  A
C2400      O2404   1.372   1_655  S
C2401      C2406   1.406       .  A
C2401      C2410   1.398       .  A
O2402      H2418   0.992       .  S
O2404      H2415   0.992       .  S
C2406      C2407   1.397       .  A
C2406      O2411   1.372       .  S
C2407      C2408   1.407       .  A
C2407      H2412   1.083       .  S
C2408      C2409   1.415       .  A
C2409      C2410   1.395       .  A
C2409      O2413   1.372       .  S
C2410      H2414   1.084       .  S
O2411      H2416   0.992       .  S
O2413      H2417   0.992       .  S
C2419      C2420   1.398       .  A
C2419      C2424   1.397       .  A
C2419      H2429   1.084       .  S
C2420      C2425   1.474       .  S
C2420      C2421   1.405       .  A
C2421      C2422   1.400       .  A
C2421      O2426   1.372       .  S
C2422      C2423   1.407       .  A
C2422      H2427   1.083       .  S
C2423      C2424   1.417       .  A
C2424      O2428   1.372       .  S
C2425      C2430   1.406       .  A
C2425      C2434   1.402       .  A
O2426      H2442   0.992       .  S
O2428      H2439   0.992       .  S
C2430      C2431   1.398       .  A
C2430      O2435   1.372       .  S
C2431      C2432   1.401       .  A
C2431      H2436   1.084   1_655  S
C2432      C2433   1.407       .  A
C2433      C2434   1.400       .  A
C2433      O3499   1.372   1_545  S
C2434      H2438   1.084       .  S
O2435      H2440   0.992   1_655  S
O2437      C3495   1.372       .  S
O2437      H2441   0.992       .  S
C2443      C2444   1.398       .  A
C2443      C2448   1.396       .  A
C2443      H2453   1.084       .  S
C2444      C2449   1.474       .  S
C2444      C2445   1.406       .  A
C2445      C2446   1.401       .  A
C2445      O2450   1.372       .  S
C2446      C2447   1.406       .  A
C2446      H2451   1.083       .  S
C2447      C2448   1.417       .  A
C2448      O2452   1.372       .  S
C2449      C2454   1.405       .  A
C2449      C2458   1.403       .  A
O2450      H2466   0.992       .  S
O2452      H2463   0.992       .  S
C2454      C2455   1.399       .  A
C2454      O2459   1.372       .  S
C2455      C2456   1.402       .  A
C2455      H3522   1.084   1_545  S
C2456      C2457   1.408       .  A
C2457      C2458   1.398       .  A
C2457      O2461   1.371       .  S
C2458      H2462   1.084       .  S
O2459      H3526   0.992       .  S
H2460      C3517   1.084       .  S
O2461      H2465   0.992       .  S
H2464      O3521   0.992       .  S
C2467      C2468   1.410       .  A
C2467      C2472   1.409       .  A
C2467      H2477   1.083       .  S
C2468      C2473   1.494       .  S
C2468      C2469   1.408       .  A
C2469      C2470   1.400       .  A
C2469      O2474   1.372       .  S
C2470      C2471   1.406       .  A
C2470      H2475   1.084   1_655  S
C2471      C2472   1.407       .  A
C2472      O3538   1.372   1_545  S
C2473      C2478   1.412       .  A
C2473      C2482   1.403       .  A
O2474      H2490   0.992       .  S
O2476      C3534   1.372       .  S
O2476      H2487   0.991       .  S
C2478      C2479   1.409       .  A
C2478      O2483   1.371       .  S
C2479      C2480   1.403       .  A
C2479      H2484   1.083       .  S
C2480      C2481   1.412       .  A
C2481      C2482   1.400       .  A
C2481      O2485   1.372       .  S
C2482      H2486   1.084       .  S
O2483      H2488   0.992       .  S
O2485      H2489   0.991       .  S
C2491      C2492   1.411       .  A
C2491      C2496   1.411       .  A
C2491      H2501   1.083       .  S
C2492      C2497   1.503       .  S
C2492      C2493   1.411       .  A
C2493      C2494   1.404       .  A
C2493      O2498   1.372       .  S
C2494      C2495   1.407       .  A
C2494      H2499   1.084       .  S
C2495      C2496   1.408       .  A
C2497      C2502   1.415       .  A
C2497      C2506   1.405       .  A
O2498      H2514   0.992       .  S
O2500      H2511   0.992       .  S
C2502      C2503   1.411       .  A
C2502      O2507   1.371       .  S
C2503      C2504   1.405       .  A
C2503      H2508   1.083       .  S
C2504      C2505   1.411       .  A
C2505      C2506   1.404       .  A
C2505      O2509   1.372       .  S
C2506      H2510   1.083       .  S
O2507      H2512   0.992       .  S
O2509      H2513   0.991       .  S
C2515      C2516   1.406       .  A
C2515      C2520   1.402       .  A
C2515      H2525   1.083       .  S
C2516      C2521   1.499       .  S
C2516      C2517   1.414       .  A
C2517      C2518   1.409       .  A
C2517      O2522   1.371       .  S
C2518      C2519   1.404       .  A
C2518      H2523   1.083       .  S
C2519      C2520   1.410       .  A
C2520      O2524   1.372       .  S
C2521      C2526   1.410       .  A
C2521      C2530   1.411       .  A
O2522      H2538   0.992       .  S
O2524      H2535   0.992       .  S
C2526      C2527   1.400       .  A
C2526      O2531   1.371       .  S
C2527      C2528   1.405       .  A
C2527      H2532   1.084   1_545  S
C2528      C2529   1.409       .  A
C2529      C2530   1.411       .  A
C2529      O2533   1.372       .  S
C2530      H2534   1.083       .  S
O2531      H2536   0.992       .  S
O2533      H2537   0.992       .  S
C2539      C2540   1.402       .  A
C2539      C2544   1.400       .  A
C2539      H2549   1.083       .  S
C2540      C2545   1.484       .  S
C2540      C2541   1.409       .  A
C2541      C2542   1.398       .  A
C2541      O2546   1.372       .  S
C2542      C2543   1.405       .  A
C2542      H2547   1.083       .  S
C2543      C2544   1.414       .  A
C2544      O2548   1.372       .  S
C2545      C2550   1.408       .  A
C2545      C2554   1.403       .  A
O2546      H2562   0.992       .  S
O2548      H2559   0.992       .  S
C2550      C2551   1.401       .  A
C2550      O2555   1.372   1_655  S
C2551      C2552   1.409       .  A
C2552      C2553   1.412       .  A
C2553      C2554   1.398       .  A
C2553      O2557   1.371       .  S
C2554      H2558   1.084       .  S
O2557      H3623   0.992       .  S
H2561      O3619   0.992       .  S
C2563      C2564   1.401       .  A
C2563      C2568   1.397       .  A
C2563      H2573   1.083       .  S
C2564      C2569   1.479       .  S
C2564      C2565   1.409       .  A
C2565      C2566   1.397       .  A
C2565      O2570   1.372       .  S
C2566      C2567   1.405       .  A
C2567      C2568   1.414       .  A
C2568      O2572   1.372       .  S
C2569      C2574   1.407       .  A
C2569      C2578   1.403       .  A
O2570      H2586   0.992       .  S
O2572      H2583   0.992       .  S
C2574      C2575   1.397       .  A
C2574      O2579   1.372       .  S
C2575      C2576   1.406       .  A
C2575      H2580   1.083       .  S
C2576      C2577   1.411       .  A
C2577      C2578   1.397       .  A
C2577      O2581   1.372       .  S
C2578      H2582   1.084       .  S
O2579      H2584   0.992       .  S
O2581      H2585   0.992       .  S
C2587      C2588   1.404       .  A
C2587      C2592   1.398       .  A
C2587      H2597   1.083       .  S
C2588      C2593   1.477       .  S
C2588      C2589   1.406       .  A
C2589      C2590   1.396       .  A
C2589      O2594   1.372       .  S
C2590      C2591   1.406       .  A
C2590      H2595   1.084       .  S
C2591      C2592   1.410       .  A
C2592      O2596   1.372       .  S
C2593      C2598   1.406       .  A
C2593      C2602   1.401       .  A
O2594      H2610   0.992       .  S
O2596      H2607   0.992       .  S
C2598      C2599   1.398       .  A
C2598      O2603   1.373       .  S
C2599      C2600   1.407       .  A
C2599      H2604   1.083       .  S
C2600      C2601   1.414       .  A
C2601      C2602   1.397       .  A
C2601      O3667   1.372   1_545  S
C2602      H2606   1.084       .  S
O2603      H2608   0.992       .  S
O2605      C3663   1.372       .  S
O2605      H2609   0.992       .  S
C2611      C3674   1.396   1_545  A
C2611      C2616   1.393       .  A
C2611      H2621   1.084       .  S
C2612      C2617   1.470       .  S
C2612      C3673   1.396       .  A
C2612      C3675   1.405       .  A
C2613      C3674   1.405       .  A
C2613      C2614   1.401   1_565  A
C2613      O3680   1.372       .  S
C2614      C2615   1.406       .  A
C2614      H2619   1.083       .  S
C2615      C2616   1.417       .  A
C2616      O2620   1.372       .  S
C2617      C2622   1.405       .  A
C2617      C2626   1.401       .  A
O2618      C3675   1.372       .  S
O2618      H2634   0.992       .  S
O2620      H2631   0.992       .  S
C2622      C2623   1.399       .  A
C2622      O2627   1.372       .  S
C2623      C2624   1.402       .  A
C2623      H2628   1.084       .  S
C2624      C2625   1.408       .  A
C2625      C2626   1.396       .  A
C2625      O2629   1.371       .  S
C2626      H2630   1.084       .  S
O2627      H2632   0.992       .  S
O2629      H2633   0.990       .  S
C2635      C2636   1.400       .  A
C2635      C2640   1.395       .  A
C2635      H2645   1.084       .  S
C2636      C2641   1.469       .  S
C2636      C2637   1.406       .  A
C2637      C2638   1.397       .  A
C2637      O2642   1.372       .  S
C2638      C2639   1.402       .  A
C2638      H2643   1.083       .  S
C2639      C2640   1.408       .  A
C2640      O2644   1.371       .  S
C2641      C2650   1.400       .  A
O2642      H2658   0.992       .  S
O2644      H2655   0.991       .  S
C2646      C2647   1.395       .  A
C2646      O2651   1.372       .  S
C2647      C2648   1.409       .  A
C2647      H2652   1.083       .  S
C2648      C2649   1.413       .  A
C2649      O2653   1.371       .  S
C2650      H2654   1.084       .  S
O2651      H2656   0.992       .  S
O2653      H2657   0.992       .  S
C2659      C2660   1.402       .  A
C2659      C2664   1.396       .  A
C2659      H2669   1.084       .  S
C2660      C2665   1.478       .  S
C2660      C2661   1.408       .  A
C2661      C2662   1.400       .  A
C2661      O2666   1.373       .  S
C2662      C2663   1.404       .  A
C2662      H2667   1.083       .  S
C2663      C2664   1.405       .  A
C2664      O2668   1.371       .  S
C2665      C2670   1.406       .  A
C2665      C2674   1.403       .  A
O2666      H2682   0.992       .  S
O2668      H2679   0.991       .  S
C2670      C2671   1.398       .  A
C2670      O2675   1.372       .  S
C2671      C2672   1.410       .  A
C2671      H2676   1.083       .  S
C2672      C2673   1.412       .  A
C2673      C2674   1.398       .  A
C2673      O2677   1.371       .  S
C2674      H2678   1.084       .  S
O2675      H2680   0.992       .  S
O2677      H2681   0.992       .  S
C2683      C2684   1.405       .  A
C2683      C2688   1.402       .  A
C2683      H2693   1.083       .  S
C2684      C3751   1.499       .  S
C2684      C2685   1.414       .  A
C2685      C2686   1.410       .  A
C2685      O2690   1.371       .  S
C2686      C2687   1.404       .  A
C2686      H2691   1.083       .  S
C2687      C2688   1.411       .  A
C2688      O2692   1.372       .  S
C2689      C3746   1.499   1_545  S
C2689      C2694   1.410       .  A
C2689      C2698   1.410       .  A
O2690      H3768   0.992       .  S
O2692      H2703   0.992       .  S
C2694      C2695   1.402       .  A
C2694      O3761   1.372       .  S
C2695      C2696   1.405       .  A
C2695      H2700   1.084       .  S
C2696      C2697   1.408       .  A
C2697      C2698   1.411       .  A
C2697      O2701   1.372       .  S
C2698      H2702   1.083       .  S
O2699      C3756   1.372       .  S
O2699      H2704   0.992       .  S
O2701      H2705   0.991       .  S
H2706      O3752   0.992       .  S
C2707      C2708   1.411       .  A
C2707      C2712   1.412       .  A
C2707      H2717   1.083       .  S
C2708      C2709   1.410       .  A
C2709      C2710   1.401       .  A
C2709      O2714   1.372       .  S
C2710      C2711   1.406       .  A
C2710      H2715   1.084       .  S
C2711      C2712   1.409       .  A
C2712      O2716   1.371       .  S
C2713      C2718   1.415       .  A
C2713      C2722   1.405       .  A
O2716      H2727   0.992       .  S
C2718      C2719   1.411       .  A
C2718      O2723   1.371       .  S
C2719      C2720   1.405       .  A
C2719      H2724   1.083       .  S
C2720      C2721   1.410       .  A
C2721      C2722   1.402       .  A
C2721      O2725   1.371       .  S
C2722      H2726   1.083       .  S
O2723      H2728   0.992       .  S
O2725      H2729   0.991       .  S
C2731      C2732   1.410       .  A
C2731      C2736   1.410       .  A
C2731      H2741   1.083       .  S
C2732      C2737   1.500       .  S
C2732      C2733   1.411       .  A
C2733      C2734   1.402       .  A
C2733      O2738   1.371       .  S
C2734      C2735   1.404       .  A
C2734      H2739   1.084       .  S
C2735      C2736   1.409       .  A
C2736      O2740   1.371       .  S
C2737      C2742   1.415       .  A
C2737      C2746   1.405       .  A
O2738      H2754   0.992       .  S
O2740      H2751   0.992       .  S
C2742      C2743   1.410       .  A
C2742      O2747   1.371       .  S
C2743      C2744   1.403       .  A
C2743      H2748   1.083       .  S
C2744      C2745   1.411       .  A
C2745      C2746   1.401       .  A
C2745      O2749   1.372       .  S
C2746      H2750   1.083       .  S
O2747      H2752   0.992       .  S
O2749      H2753   0.991       .  S
C2755      C2756   1.400       .  A
C2755      C2760   1.397       .  A
C2755      H2765   1.084       .  S
C2756      C2761   1.468       .  S
C2756      C2757   1.406       .  A
C2757      C2758   1.397       .  A
C2757      O2762   1.371       .  S
C2758      C2759   1.400       .  A
C2758      H2763   1.084       .  S
C2759      C2760   1.404       .  A
C2760      O3826   1.372       .  S
C2761      C2766   1.404       .  A
C2761      C2770   1.397       .  A
O2762      H2778   0.992       .  S
O2764      C3822   1.372   1_545  S
O2764      H2775   0.992       .  S
C2766      C2767   1.397       .  A
C2766      O2771   1.372       .  S
C2767      C2768   1.406       .  A
C2767      H2772   1.083       .  S
C2768      C2769   1.416       .  A
C2769      C2770   1.396       .  A
C2769      O2773   1.372       .  S
C2770      H2774   1.084       .  S
O2771      H2776   0.992       .  S
O2773      H2777   0.992       .  S
C2779      C2780   1.402       .  A
C2779      C2784   1.400       .  A
C2779      H2789   1.084       .  S
C2780      C2785   1.476       .  S
C2780      C2781   1.404       .  A
C2781      C2782   1.399       .  A
C2781      O2786   1.373       .  S
C2782      C2783   1.409       .  A
C2782      H2787   1.083       .  S
C2783      C2784   1.414       .  A
C2784      O2788   1.371       .  S
C2785      C2790   1.409       .  A
C2785      C2794   1.400       .  A
O2786      H2802   0.992       .  S
O2788      H2799   0.992       .  S
C2790      C2791   1.399       .  A
C2790      O2795   1.371       .  S
C2791      C2792   1.403       .  A
C2791      H2796   1.083       .  S
C2792      C2793   1.408       .  A
C2793      C2794   1.396       .  A
C2793      O2797   1.372       .  S
C2794      H2798   1.084       .  S
O2795      H2800   0.992       .  S
O2797      H2801   0.992       .  S
C2803      C2804   1.398       .  A
C2803      C2808   1.395       .  A
C2803      H2813   1.084       .  S
C2804      C2809   1.478       .  S
C2804      C2805   1.408       .  A
C2805      C2806   1.404       .  A
C2805      O2810   1.373       .  S
C2806      C2807   1.408       .  A
C2806      H2811   1.083       .  S
C2807      C2808   1.417       .  A
C2808      O2812   1.372       .  S
C2809      C2814   1.405       .  A
C2809      C2818   1.404       .  A
O2810      H2826   0.992       .  S
O2812      H2823   0.992       .  S
C2814      C2815   1.397       .  A
C2814      O2819   1.372       .  S
C2815      C2816   1.401       .  A
C2816      C2817   1.410       .  A
C2817      C2818   1.400       .  A
C2817      O2821   1.371       .  S
C2818      H2822   1.084       .  S
O2819      H2824   0.992       .  S
O2821      H2825   0.991       .  S
C2827      C2828   1.399       .  A
C2827      C2832   1.398       .  A
C2827      H2837   1.084       .  S
C2828      C2833   1.474       .  S
C2828      C2829   1.408       .  A
C2829      C2830   1.401       .  A
C2829      O2834   1.371       .  S
C2830      C2831   1.402       .  A
C2830      H2835   1.084       .  S
C2831      C2832   1.407       .  A
C2832      O2836   1.372       .  S
C2833      C2838   1.407       .  A
C2833      C2842   1.397       .  A
O2834      H2850   0.992       .  S
O2836      H2847   0.992       .  S
C2838      C2839   1.401       .  A
C2838      O2843   1.372       .  S
C2839      C2840   1.406       .  A
C2839      H2844   1.083       .  S
C2840      C2841   1.418       .  A
C2841      C2842   1.396       .  A
C2841      O2845   1.372       .  S
C2842      H2846   1.084       .  S
O2843      H2848   0.992       .  S
O2845      H2849   0.992       .  S
C2851      C2852   1.401       .  A
C2851      C2856   1.399       .  A
C2851      H2861   1.084       .  S
C2852      C2857   1.468       .  S
C2852      C2853   1.401       .  A
C2853      C2854   1.392       .  A
C2853      O2858   1.372       .  S
C2854      C2855   1.402       .  A
C2854      H2859   1.075       .  S
C2855      C2856   1.412       .  A
C2856      O2860   1.371       .  S
C2857      C2862   1.406       .  A
C2857      C2866   1.396       .  A
O2858      H2874   0.992       .  S
O2860      H2871   0.992       .  S
C2862      C2863   1.398       .  A
C2862      O2867   1.372       .  S
C2863      C2864   1.406       .  A
C2863      H2868   1.083       .  S
C2864      C2865   1.417       .  A
C2865      C2866   1.395       .  A
C2865      O3931   1.372       .  S
C2866      H2870   1.084       .  S
O2867      H2872   0.992       .  S
O2869      C3927   1.372       .  S
O2869      H2873   0.992       .  S
C2875      C2876   1.404       .  A
C2875      C2880   1.399       .  A
C2875      H2885   1.084       .  S
C2876      C2881   1.479       .  S
C2876      C2877   1.409       .  A
C2877      C2878   1.399       .  A
C2877      O2882   1.373       .  S
C2878      C2879   1.400       .  A
C2878      H2883   1.084       .  S
C2879      C2880   1.404       .  A
C2880      O2884   1.372       .  S
C2881      C2886   1.409       .  A
C2881      C2890   1.401       .  A
O2882      H2898   0.992       .  S
O2884      H2895   0.992       .  S
C2886      C2887   1.398       .  A
C2886      O2891   1.371       .  S
C2887      C2888   1.404       .  A
C2887      H2892   1.083       .  S
C2888      C2889   1.414       .  A
C2889      C2890   1.397       .  A
C2889      O2893   1.372       .  S
C2890      H2894   1.084       .  S
O2891      H2896   0.992       .  S
O2893      H2897   0.992       .  S
C2899      C2900   1.410       .  A
C2899      C2904   1.410       .  A
C2899      H2909   1.083       .  S
C2900      C2905   1.497       .  S
C2900      C2901   1.410       .  A
C2901      C2902   1.401       .  A
C2901      O2906   1.371       .  S
C2902      C2903   1.406       .  A
C2902      H2907   1.084       .  S
C2903      C2904   1.408       .  A
C2904      O2908   1.371       .  S
C2905      C2910   1.413       .  A
C2905      C2914   1.404       .  A
O2906      H2922   0.992       .  S
O2908      H2919   0.992       .  S
C2910      C2911   1.410       .  A
C2910      O2915   1.372       .  S
C2911      C2912   1.404       .  A
C2911      H2916   1.083       .  S
C2912      C2913   1.409       .  A
C2913      C2914   1.404       .  A
C2913      O3979   1.372       .  S
C2914      H2918   1.083       .  S
O2915      H2920   0.992       .  S
O2917      C3975   1.372   1_545  S
O2917      H2921   0.991       .  S
C2923      C2924   1.408       .  A
C2923      C2928   1.397       .  A
C2923      H2933   1.083       .  S
C2924      C2929   1.502       .  S
C2924      C2925   1.417       .  A
C2925      C2926   1.410       .  A
C2925      O2930   1.373       .  S
C2926      C2927   1.401       .  A
C2926      H2931   1.080       .  S
C2927      C2928   1.405       .  A
C2928      O2932   1.369       .  S
C2929      C2934   1.418       .  A
C2929      C2938   1.407       .  A
O2930      H2946   0.992       .  S
O2932      H2943   0.992       .  S
C2934      C2935   1.408       .  A
C2934      O2939   1.371       .  S
C2935      C2936   1.402       .  A
C2935      H2940   1.083       .  S
C2936      C2937   1.405       .  A
C2937      C2938   1.398       .  A
C2937      O2941   1.369       .  S
C2938      H2942   1.083       .  S
O2939      H2944   0.992       .  S
O2941      H4007   0.991       .  S
H2945      O4003   0.991       .  S
C2947      C2948   1.407       .  A
C2947      C2952   1.406       .  A
C2947      H2957   1.083       .  S
C2948      C2953   1.491       .  S
C2948      C2949   1.409       .  A
C2949      C2950   1.401       .  A
C2949      O2954   1.372       .  S
C2950      C2951   1.405       .  A
C2950      H2955   1.084       .  S
C2951      C2952   1.406       .  A
C2952      O2956   1.369       .  S
C2953      C2958   1.413       .  A
C2953      C2962   1.401       .  A
O2954      H2970   0.992       .  S
O2956      H2967   0.992       .  S
C2958      C2959   1.409       .  A
C2958      O2963   1.372       .  S
C2959      C2960   1.403       .  A
C2959      H2964   1.083       .  S
C2960      C2961   1.411       .  A
C2961      C2962   1.400       .  A
C2961      O2965   1.373       .  S
C2962      H2966   1.084       .  S
O2963      H2968   0.992       .  S
C2971      C2972   1.404       .  A
C2971      C2976   1.399       .  A
C2971      H2981   1.083       .  S
C2972      C2977   1.480       .  S
C2972      C2973   1.410       .  A
C2973      C2974   1.394       .  A
C2973      O2978   1.372       .  S
C2974      C2975   1.399       .  A
C2974      H2979   1.084       .  S
C2975      C2976   1.405       .  A
C2976      O2980   1.374       .  S
C2977      C2982   1.408       .  A
C2977      C2986   1.402       .  A
O2978      H2994   0.992       .  S
O2980      H2991   0.992       .  S
C2982      C2983   1.398       .  A
C2982      O2987   1.373       .  S
C2983      C2984   1.406       .  A
C2983      H2988   1.083       .  S
C2984      C2985   1.413       .  A
C2985      C2986   1.397       .  A
C2985      O2989   1.372       .  S
C2986      H2990   1.084       .  S
O2987      H2992   0.992       .  S
O2989      H2993   0.992       .  S
C2995      C2996   1.403       .  A
C2995      C3000   1.398       .  A
C2995      H3005   1.083       .  S
C2996      C3001   1.479       .  S
C2996      C2997   1.409       .  A
C2997      C2998   1.397       .  A
C2997      O3002   1.372       .  S
C2998      C2999   1.401       .  A
C2998      H3003   1.084       .  S
C2999      C3000   1.407       .  A
C3000      O3004   1.371       .  S
C3001      C3006   1.408       .  A
C3001      C3010   1.401       .  A
O3002      H3018   0.992       .  S
O3004      H3015   0.991       .  S
C3006      C3007   1.399       .  A
C3006      O3011   1.372       .  S
C3007      C3008   1.407       .  A
C3007      H3012   1.083       .  S
C3008      C3009   1.414       .  A
C3009      C3010   1.397       .  A
C3009      O3013   1.372   1_655  S
C3010      H3014   1.084       .  S
O3011      H3016   0.992       .  S
O3013      H3017   0.992       .  S
C3019      C3020   1.404       .  A
C3019      C3024   1.401       .  A
C3019      H3029   1.083       .  S
C3020      C3025   1.487       .  S
C3020      C3021   1.410       .  A
C3021      C3022   1.397       .  A
C3021      O3026   1.372       .  S
C3022      C3023   1.405       .  A
C3022      H3027   1.083       .  S
C3023      C3024   1.414       .  A
C3024      O3028   1.371   1_545  S
C3025      C3030   1.410       .  A
C3025      C3034   1.406       .  A
O3026      H3042   0.992       .  S
O3028      H3039   0.992       .  S
C3030      C3031   1.400       .  A
C3030      O3035   1.372       .  S
C3031      C3032   1.402       .  A
C3031      H3036   1.083       .  S
C3032      C3033   1.405       .  A
C3033      C3034   1.400       .  A
C3033      O3037   1.373       .  S
C3034      H3038   1.083       .  S
O3035      H3040   0.992       .  S
O3037      H3041   0.992       .  S
C3043      C3044   1.401       .  A
C3043      C3048   1.398       .  A
C3043      H3053   1.084       .  S
C3044      C3049   1.471       .  S
C3044      C3045   1.404       .  A
C3045      C3046   1.395       .  A
C3045      O3050   1.372       .  S
C3046      C3047   1.408       .  A
C3046      H3051   1.083       .  S
C3047      C3048   1.413       .  A
C3048      O3052   1.372       .  S
C3049      C3054   1.408       .  A
C3049      C3058   1.397       .  A
O3050      H3066   0.992       .  S
O3052      H3063   0.992       .  S
C3054      C3055   1.401       .  A
C3054      O3059   1.372       .  S
C3055      C3056   1.403       .  A
C3055      H3060   1.083       .  S
C3056      C3057   1.412       .  A
C3057      C3058   1.393       .  A
C3057      O3061   1.373       .  S
C3058      H3062   1.084       .  S
O3059      H3064   0.992       .  S
C3067      C3068   1.401       .  A
C3067      C3072   1.398       .  A
C3067      H3077   1.084       .  S
C3068      C3073   1.482       .  S
C3068      C3069   1.408       .  A
C3069      C3070   1.400       .  A
C3069      O3074   1.372       .  S
C3070      C3071   1.408       .  A
C3070      H3075   1.083       .  S
C3071      C3072   1.416       .  A
C3072      O3076   1.372       .  S
C3073      C3078   1.407       .  A
C3073      C3082   1.407       .  A
O3074      H3090   0.992       .  S
O3076      H3087   0.992       .  S
C3078      C3079   1.394       .  A
C3078      O3083   1.372       .  S
C3079      C3080   1.403       .  A
C3079      H3084   1.084       .  S
C3080      C3081   1.408       .  A
C3081      C3082   1.404       .  A
C3081      O3085   1.372       .  S
C3082      H3086   1.083       .  S
O3083      H3088   0.992       .  S
O3085      H3089   0.992       .  S
C3091      C3092   1.400       .  A
C3091      C3096   1.398       .  A
C3091      H3101   1.084       .  S
C3092      C3097   1.476       .  S
C3092      C3093   1.406       .  A
C3093      C3094   1.398       .  A
C3093      O3098   1.372       .  S
C3094      C3095   1.408       .  A
C3094      H3099   1.083       .  S
C3095      C3096   1.416       .  A
C3096      O3100   1.372       .  S
C3097      C3102   1.403       .  A
C3097      C3106   1.405       .  A
O3098      H3114   0.992       .  S
O3100      H3111   0.992       .  S
C3102      C3103   1.394       .  A
C3102      O3107   1.372       .  S
C3103      C3104   1.407       .  A
C3103      H3108   1.084       .  S
C3104      C3105   1.408       .  A
C3105      C3106   1.403       .  A
C3105      O3109   1.371       .  S
C3106      H3110   1.084       .  S
O3107      H3112   0.992       .  S
O3109      H4175   0.992       .  S
H3113      O4171   0.992       .  S
C3115      C3116   1.404       .  A
C3115      C3120   1.398       .  A
C3115      H3125   1.084       .  S
C3116      C3121   1.479       .  S
C3116      C3117   1.408       .  A
C3117      C3118   1.401       .  A
C3117      O3122   1.372       .  S
C3118      C3119   1.401       .  A
C3118      H3123   1.083       .  S
C3119      C3120   1.405       .  A
C3120      O3124   1.371       .  S
C3121      C4188   1.408       .  A
C3121      C4192   1.399   1_545  A
O3122      H3138   0.992       .  S
O3124      H3135   0.991       .  S
C3126      C4183   1.408       .  A
C3126      C3127   1.401       .  A
C3126      O3131   1.372       .  S
C3127      C3128   1.407       .  A
C3127      H3132   1.083       .  S
C3128      C3129   1.416       .  A
C3129      C3130   1.397       .  A
C3129      O3133   1.372       .  S
C3130      C4183   1.399       .  A
C3130      H4196   1.084       .  S
O3131      H3136   0.992       .  S
O3133      H3137   0.992       .  S
H3134      C4192   1.084       .  S
C3139      C3144   1.396       .  A
C3140      C3145   1.473       .  S
C3141      C3142   1.402       .  A
C3141      O3146   1.372       .  S
C3142      C3143   1.407       .  A
C3142      H3147   1.083       .  S
C3143      C3144   1.416       .  A
C3144      O3148   1.372       .  S
C3145      C3150   1.405       .  A
C3145      C3154   1.402       .  A
O3148      H3159   0.992       .  S
C3150      C3151   1.398       .  A
C3150      O3155   1.372       .  S
C3151      C3152   1.402       .  A
C3151      H3156   1.083       .  S
C3152      C3153   1.409       .  A
C3153      C3154   1.397       .  A
C3153      O3157   1.371       .  S
C3154      H3158   1.084       .  S
O3155      H3160   0.992       .  S
O3157      H3161   0.991       .  S
C3163      C3164   1.402       .  A
C3163      C3168   1.397       .  A
C3163      H3173   1.084       .  S
C3164      C3169   1.471       .  S
C3164      C3165   1.405       .  A
C3165      C3166   1.398       .  A
C3165      O3170   1.372       .  S
C3166      C3167   1.402       .  A
C3166      H3171   1.084       .  S
C3167      C3168   1.406       .  A
C3168      O3172   1.371       .  S
C3169      C3174   1.405       .  A
C3169      C3178   1.397       .  A
O3170      H3186   0.992       .  S
O3172      H3183   0.991       .  S
C3174      C3175   1.400       .  A
C3174      O3179   1.372       .  S
C3175      C3176   1.407       .  A
C3175      H3180   1.083       .  S
C3176      C3177   1.417       .  A
C3177      C3178   1.396       .  A
C3177      O3181   1.372       .  S
C3178      H3182   1.084       .  S
O3179      H3184   0.992       .  S
O3181      H3185   0.992       .  S
Zn3187     O3191   1.959       .  S
Zn3187     O3192   2.031       .  S
Zn3187     O3196   1.998       .  S
Zn3187     O3203   2.020       .  S
Zn3188     O3191   1.927       .  S
Zn3188     O3193   1.995       .  S
Zn3188     O3195   1.989       .  S
Zn3188     O3199   1.991       .  S
Zn3189     O3191   1.957       .  S
Zn3189     O3194   2.011       .  S
Zn3189     O3197   2.031       .  S
Zn3189     O3200   1.997       .  S
Zn3190     O3191   1.956       .  S
Zn3190     O3198   2.003       .  S
Zn3190     O3201   2.028       .  S
Zn3190     O3202   2.004       .  S
O3192      C3204   1.276       .  A
O3193      C3205   1.271       .  A
O3194      C3206   1.273       .  A
O3195      C3204   1.270       .  A
O3196      C3206   1.271       .  A
O3197      C3205   1.275       .  A
O3198      C3207   1.272       .  A
O3199      C3208   1.271       .  A
O3200      C3207   1.272       .  A
O3201      C3208   1.275       .  A
O3202      C3209   1.272       .  A
O3203      C3209   1.274       .  A
C3204      C4238   1.485       .  S
C3205      C4190   1.487       .  S
C3206      C4157   1.485       .  S
C3207      C4109   1.481       .  S
C3208      C4205   1.484       .  S
C3209      C4133   1.488       .  S
Zn3210     O3214   1.964   1_665  S
Zn3210     O3219   2.054       .  S
Zn3210     O3226   2.012       .  S
Zn3211     O3216   2.044       .  S
Zn3211     O3222   2.015       .  S
Zn3212     O3214   1.901       .  S
Zn3212     O3217   1.957   1_445  S
Zn3213     O3221   2.036       .  S
O3215      C3227   1.276       .  A
O3216      C3228   1.274       .  A
O3217      C3229   1.266       .  A
O3218      C3227   1.275       .  A
O3219      C3229   1.276       .  A
O3220      C3228   1.267       .  A
O3221      C3230   1.274       .  A
O3222      C3231   1.275       .  A
O3223      C3230   1.266       .  A
O3224      C3231   1.273       .  A
O3225      C3232   1.275       .  A
O3226      C3232   1.274       .  A
C3227      C4070   1.483       .  S
C3228      C4142   1.472       .  S
C3229      C4166   1.477       .  S
C3230      C4118   1.472       .  S
C3231      C4085   1.486       .  S
C3232      C4046   1.482       .  S
C3233      H3234   1.110       .  S
C3233      C3239   1.555       .  S
C3233      C3238   1.553       .  S
C3233      C3237   1.556       .  S
C3235      H3236   1.112       .  S
C3235      C3241   1.523       .  S
C3235      C3240   1.525       .  S
C3235      C3242   1.518       .  S
C3237      C3240   1.379       .  D
C3237      C3965   1.495       .  S
C3238      C3241   1.371       .  D
C3238      C3989   1.490       .  S
C3239      C3242   1.372       .  D
C3239      C4013   1.490       .  S
C3240      C3917   1.485       .  S
C3241      C3893   1.479       .  S
C3242      C3941   1.475       .  S
C3243      H3244   1.110   1_655  S
C3245      H3246   1.111       .  S
C3247      C3250   1.376       .  D
C3247      C4022   1.493       .  S
C3248      C3251   1.368       .  D
C3248      C3998   1.488       .  S
C3249      C3252   1.375       .  D
C3249      C3974   1.492       .  S
C3250      C3878   1.486       .  S
C3251      C3821   1.470       .  S
C3252      C3854   1.480       .  S
C3253      H3254   1.110       .  S
C3253      C3259   1.556       .  S
C3253      C3258   1.556       .  S
C3253      C3257   1.558       .  S
C3255      H3256   1.112       .  S
C3255      C3261   1.522       .  S
C3255      C3260   1.521       .  S
C3255      C3262   1.521       .  S
C3257      C3260   1.374       .  D
C3257      C3806   1.493       .  S
C3258      C3261   1.375       .  D
C3258      C3749   1.496       .  S
C3259      C3262   1.373       .  D
C3259      C3782   1.495       .  S
C3260      C3725   1.481       .  S
C3261      C3686   1.478       .  S
C3262      C3701   1.477       .  S
C3263      H3264   1.112       .  S
C3263      C3269   1.520       .  S
C3263      C3268   1.518       .  S
C3263      C3267   1.518       .  S
C3265      H3266   1.110       .  S
C3265      C3271   1.558       .  S
C3265      C3270   1.559       .  S
C3265      C3272   1.561       .  S
C3267      C3270   1.374       .  D
C3267      C4229   1.477       .  S
C3268      C3271   1.373       .  D
C3268      C4181   1.477       .  S
C3269      C3272   1.377       .  D
C3269      C4214   1.481       .  S
C3270      C3797   1.494       .  S
C3271      C3758   1.495       .  S
C3272      C3773   1.500       .  S
Zn3273     O3277   1.926       .  S
Zn3273     O3278   1.990       .  S
Zn3273     O3282   1.969       .  S
Zn3273     O3289   1.983       .  S
Zn3274     O3277   1.952       .  S
Zn3274     O3279   2.011       .  S
Zn3274     O3281   2.023       .  S
Zn3274     O3285   2.006       .  S
Zn3275     O3277   1.955       .  S
Zn3275     O3280   2.029       .  S
Zn3275     O3283   2.001       .  S
Zn3275     O3286   2.015       .  S
Zn3276     O3277   1.949       .  S
Zn3276     O3284   2.006       .  S
Zn3276     O3287   2.001       .  S
Zn3276     O3288   2.013       .  S
O3278      C3290   1.270       .  A
O3279      C3291   1.273       .  A
O3280      C3292   1.275       .  A
O3281      C3290   1.274       .  A
O3282      C3292   1.268       .  A
O3283      C3291   1.272       .  A
O3284      C3293   1.272       .  A
O3285      C3294   1.273       .  A
O3286      C3293   1.274       .  A
O3287      C3294   1.272       .  A
O3288      C3295   1.273       .  A
O3289      C3295   1.270       .  A
C3290      C3734   1.485       .  S
C3291      C3653   1.477       .  S
C3292      C3677   1.482       .  S
C3293      C3605   1.482       .  S
C3294      C3638   1.478       .  S
C3295      C3710   1.481       .  S
Zn3296     O3301   1.997       .  S
Zn3296     O3312   2.034       .  S
Zn3297     O3308   2.031       .  S
Zn3298     O3300   1.952       .  S
Zn3298     O3306   2.003       .  S
Zn3298     O3309   2.021       .  S
Zn3299     O3300   1.925       .  S
Zn3299     O3307   1.984       .  S
O3301      C3313   1.271       .  A
O3302      C3314   1.273       .  A
O3303      C3315   1.273   1_455  A
O3304      C3313   1.274       .  A
O3305      C3315   1.274       .  A
O3306      C3314   1.273       .  A
O3307      C3316   1.269       .  A
O3308      C3317   1.275       .  A
O3309      C3316   1.274       .  A
O3310      C3317   1.268       .  A
O3311      C3318   1.269       .  A
O3312      C3318   1.276       .  A
C3313      C3629   1.480       .  S
C3314      C3662   1.482       .  S
C3315      C3614   1.486       .  S
C3316      C3950   1.480       .  S
C3317      C3926   1.481       .  S
C3318      C3902   1.485       .  S
C3319      H3320   1.110       .  S
C3319      C3325   1.556       .  S
C3319      C3324   1.559       .  S
C3319      C3323   1.560       .  S
C3321      H3322   1.112       .  S
C3321      C3327   1.517       .  S
C3321      C3326   1.519       .  S
C3321      C3328   1.522       .  S
C3323      C3326   1.374       .  D
C3323      C3581   1.494       .  S
C3324      C3327   1.373       .  D
C3324      C3542   1.492       .  S
C3325      C3328   1.374       .  D
C3325      C3566   1.499       .  S
C3326      C4094   1.481       .  S
C3327      C4061   1.478       .  S
C3328      C4037   1.472       .  S
C3329      H3330   1.113       .  S
C3329      C3333   1.516   1_455  S
C3331      C3336   1.557   1_455  S
C3333      C3336   1.374       .  D
C3333      C3494   1.477       .  S
C3334      C3337   1.373       .  D
C3334      C3461   1.472       .  S
C3335      C3338   1.376       .  D
C3335      C3518   1.481       .  S
C3336      C3533   1.492       .  S
C3337      C3557   1.500       .  S
C3338      C3590   1.496       .  S
Zn3339     O3343   1.962       .  S
Zn3339     O3344   2.016       .  S
Zn3339     O3348   2.002       .  S
Zn3339     O3355   2.026       .  S
Zn3340     O3343   1.935       .  S
Zn3340     O3345   1.990       .  S
Zn3340     O3347   1.988       .  S
Zn3340     O3351   2.005       .  S
Zn3341     O3343   1.967       .  S
Zn3341     O3346   2.009       .  S
Zn3341     O3349   2.038       .  S
Zn3341     O3352   2.016       .  S
Zn3342     O3343   1.944       .  S
Zn3342     O3350   1.991       .  S
Zn3342     O3353   2.024       .  S
Zn3342     O3354   2.006       .  S
O3344      C3356   1.275       .  A
O3345      C3357   1.270       .  A
O3346      C3358   1.273       .  A
O3347      C3356   1.270       .  A
O3348      C3358   1.272       .  A
O3349      C3357   1.275       .  A
O3350      C3359   1.271       .  A
O3351      C3360   1.273       .  A
O3352      C3359   1.273       .  A
O3353      C3360   1.275       .  A
O3354      C3361   1.272       .  A
O3355      C3361   1.273       .  A
C3356      C3830   1.480       .  S
C3357      C3869   1.488       .  S
C3358      C3398   1.480       .  S
C3359      C3437   1.472       .  S
C3360      C3845   1.487       .  S
C3361      C3413   1.482       .  S
Zn3362     O3366   1.962       .  S
Zn3362     O3367   2.021       .  S
Zn3362     O3371   2.029       .  S
Zn3362     O3378   2.014       .  S
Zn3363     O3366   1.961       .  S
Zn3363     O3368   2.035       .  S
Zn3363     O3370   2.019       .  S
Zn3363     O3374   2.029       .  S
Zn3364     O3366   1.929       .  S
Zn3364     O3369   1.985       .  S
Zn3364     O3372   1.978       .  S
Zn3364     O3375   1.988       .  S
Zn3365     O3366   1.945       .  S
Zn3365     O3373   2.010       .  S
Zn3365     O3376   1.982       .  S
Zn3365     O3377   1.991       .  S
O3367      C3379   1.274       .  A
O3368      C3380   1.276       .  A
O3369      C3381   1.270       .  A
O3370      C3379   1.275       .  A
O3371      C3381   1.276       .  A
O3372      C3380   1.269       .  A
O3373      C3382   1.272       .  A
O3374      C3383   1.275       .  A
O3375      C3382   1.269       .  A
O3376      C3383   1.269       .  A
O3377      C3384   1.271       .  A
O3378      C3384   1.273       .  A
C3379      C3422   1.488       .  S
C3380      C3509   1.484       .  S
C3381      C3485   1.485       .  S
C3382      C3470   1.482       .  S
C3383      C3389   1.479       .  S
C3384      C3446   1.475       .  S
C3385      C3386   1.401       .  A
C3385      C3390   1.395   1_556  A
C3385      H3395   1.083       .  S
C3386      C3391   1.484       .  S
C3386      C3387   1.412   1_556  A
C3387      C3388   1.400       .  A
C3387      O3392   1.372       .  S
C3388      C3389   1.404       .  A
C3388      H3393   1.083       .  S
C3389      C3390   1.413       .  A
C3390      O3394   1.372       .  S
C3391      C3396   1.409       .  A
C3391      C3400   1.404       .  A
O3392      H3408   0.992       .  S
O3394      H3405   0.992       .  S
C3396      C3397   1.399       .  A
C3396      O3401   1.373       .  S
C3397      C3398   1.406       .  A
C3397      H3402   1.084       .  S
C3398      C3399   1.410       .  A
C3399      C3400   1.397       .  A
C3399      O3403   1.371       .  S
C3400      H3404   1.083       .  S
O3401      H3406   0.992       .  S
O3403      H3407   0.992       .  S
C3409      C3410   1.401       .  A
C3409      C3414   1.397       .  A
C3409      H3419   1.083       .  S
C3410      C3411   1.410       .  A
C3411      C3412   1.404       .  A
C3412      C3413   1.406       .  A
C3412      H3417   1.083       .  S
C3413      C3414   1.412       .  A
C3414      O3418   1.372       .  S
C3415      C3420   1.407       .  A
C3415      C3424   1.404       .  A
O3416      H3432   0.992       .  S
O3418      H3429   0.992       .  S
C3420      C3421   1.399   1_556  A
C3420      O3425   1.372       .  S
C3421      C3422   1.407       .  A
C3421      H3426   1.083       .  S
C3422      C3423   1.414       .  A
C3423      C3424   1.403   1_554  A
C3423      O3427   1.371       .  S
C3424      H3428   1.084       .  S
O3425      H3430   0.992       .  S
O3427      H3431   0.992       .  S
C3433      C3434   1.403       .  A
C3433      C3438   1.400       .  A
C3434      C3435   1.405       .  A
C3435      C3436   1.396       .  A
C3435      O3440   1.373       .  S
C3436      C3437   1.405       .  A
C3436      H3441   1.084       .  S
C3437      C3438   1.408       .  A
C3438      O3442   1.371       .  S
C3439      C3444   1.405       .  A
C3439      C3448   1.403   1_556  A
O3440      H3456   0.992       .  S
O3442      H3453   0.992       .  S
C3444      C3445   1.393   1_556  A
C3444      O3449   1.372       .  S
C3445      C3446   1.405       .  A
C3445      H3450   1.084       .  S
C3446      C3447   1.410       .  A
C3447      C3448   1.400       .  A
C3447      O3451   1.371       .  S
O3449      H3454   0.992       .  S
O3451      H3455   0.992       .  S
C3457      C3458   1.403       .  A
C3457      C3462   1.395       .  A
C3457      H3467   1.084       .  S
C3458      C3463   1.471       .  S
C3458      C3459   1.406       .  A
C3459      C3460   1.397       .  A
C3459      O3464   1.372       .  S
C3460      C3461   1.401       .  A
C3460      H3465   1.084       .  S
C3461      C3462   1.405       .  A
C3462      O3466   1.372   1_655  S
C3463      C3468   1.406       .  A
C3463      C3472   1.398       .  A
O3464      H3480   0.992       .  S
O3466      H3477   0.992       .  S
C3468      C3469   1.397       .  A
C3468      O3473   1.372       .  S
C3469      C3470   1.407       .  A
C3469      H3474   1.083       .  S
C3470      C3471   1.415       .  A
C3471      C3472   1.395       .  A
C3471      O3475   1.372       .  S
C3472      H3476   1.084       .  S
O3473      H3478   0.992       .  S
O3475      H3479   0.992       .  S
C3481      C3482   1.398       .  A
C3481      C3486   1.397       .  A
C3481      H3491   1.084       .  S
C3482      C3487   1.473       .  S
C3482      C3483   1.405       .  A
C3483      C3484   1.400       .  A
C3483      O3488   1.372       .  S
C3484      C3485   1.407       .  A
C3484      H3489   1.083       .  S
C3485      C3486   1.417       .  A
C3486      O3490   1.372       .  S
C3487      C3492   1.406       .  A
C3487      C3496   1.402       .  A
O3488      H3504   0.992       .  S
O3490      H3501   0.992       .  S
C3492      C3493   1.398       .  A
C3492      O3497   1.372       .  S
C3493      C3494   1.401       .  A
C3493      H3498   1.084   1_655  S
C3494      C3495   1.407       .  A
C3495      C3496   1.400       .  A
C3496      H3500   1.084       .  S
O3497      H3502   0.992   1_655  S
O3499      H3503   0.992   1_565  S
C3505      C3506   1.398       .  A
C3505      C3510   1.396       .  A
C3505      H3515   1.084       .  S
C3506      C3511   1.474       .  S
C3506      C3507   1.406       .  A
C3507      C3508   1.401       .  A
C3507      O3512   1.372       .  S
C3508      C3509   1.406       .  A
C3508      H3513   1.083       .  S
C3509      C3510   1.417       .  A
C3510      O3514   1.372       .  S
C3511      C3516   1.405       .  A
C3511      C3520   1.403       .  A
O3512      H3528   0.992       .  S
O3514      H3525   0.992       .  S
C3516      C3517   1.399       .  A
C3516      O3521   1.372       .  S
C3517      C3518   1.402       .  A
C3518      C3519   1.408       .  A
C3519      C3520   1.398       .  A
C3519      O3523   1.371       .  S
C3520      H3524   1.084       .  S
O3523      H3527   0.992       .  S
C3529      C3530   1.410       .  A
C3529      C3534   1.409       .  A
C3529      H3539   1.083       .  S
C3530      C3535   1.494       .  S
C3530      C3531   1.409       .  A
C3531      C3532   1.400       .  A
C3531      O3536   1.372       .  S
C3532      C3533   1.406       .  A
C3532      H3537   1.084   1_655  S
C3533      C3534   1.407       .  A
C3535      C3540   1.412       .  A
C3535      C3544   1.403       .  A
O3536      H3552   0.992       .  S
O3538      H3549   0.991       .  S
C3540      C3541   1.409       .  A
C3540      O3545   1.371       .  S
C3541      C3542   1.403       .  A
C3541      H3546   1.083       .  S
C3542      C3543   1.412       .  A
C3543      C3544   1.400       .  A
C3543      O3547   1.372       .  S
C3544      H3548   1.084       .  S
O3545      H3550   0.992       .  S
O3547      H3551   0.991       .  S
C3553      C3554   1.411       .  A
C3553      C3558   1.411       .  A
C3553      H3563   1.083       .  S
C3554      C3559   1.503       .  S
C3554      C3555   1.411       .  A
C3555      C3556   1.404       .  A
C3555      O3560   1.372       .  S
C3556      C3557   1.407       .  A
C3556      H3561   1.084       .  S
C3557      C3558   1.408       .  A
C3559      C3564   1.415       .  A
C3559      C3568   1.405       .  A
O3560      H3576   0.992       .  S
O3562      H3573   0.992       .  S
C3564      C3565   1.411       .  A
C3564      O3569   1.371       .  S
C3565      C3566   1.405       .  A
C3565      H3570   1.083       .  S
C3566      C3567   1.411       .  A
C3567      C3568   1.404       .  A
C3567      O3571   1.372       .  S
C3568      H3572   1.083       .  S
O3569      H3574   0.992       .  S
O3571      H3575   0.991       .  S
C3577      C3578   1.406       .  A
C3577      C3582   1.402       .  A
C3577      H3587   1.083       .  S
C3578      C3583   1.499       .  S
C3578      C3579   1.414       .  A
C3579      C3580   1.409       .  A
C3579      O3584   1.371       .  S
C3580      C3581   1.404       .  A
C3580      H3585   1.083       .  S
C3581      C3582   1.410       .  A
C3582      O3586   1.372       .  S
C3583      C3588   1.410       .  A
C3583      C3592   1.411       .  A
O3584      H3600   0.992       .  S
O3586      H3597   0.992       .  S
C3588      C3589   1.400       .  A
C3588      O3593   1.371       .  S
C3589      C3590   1.405       .  A
C3589      H3594   1.084       .  S
C3590      C3591   1.409       .  A
C3591      C3592   1.411       .  A
C3591      O3595   1.372       .  S
C3592      H3596   1.083       .  S
O3593      H3598   0.992       .  S
O3595      H3599   0.992       .  S
C3601      C3602   1.402       .  A
C3601      C3606   1.400       .  A
C3601      H3611   1.083       .  S
C3602      C3607   1.484       .  S
C3602      C3603   1.409       .  A
C3603      C3604   1.398       .  A
C3603      O3608   1.372       .  S
C3604      C3605   1.404       .  A
C3604      H3609   1.083       .  S
C3605      C3606   1.414       .  A
C3606      O3610   1.372       .  S
C3607      C3612   1.408       .  A
C3607      C3616   1.403       .  A
O3608      H3624   0.992       .  S
O3610      H3621   0.992       .  S
C3612      C3613   1.401       .  A
C3612      O3617   1.372   1_655  S
C3613      C3614   1.409       .  A
C3614      C3615   1.412       .  A
C3615      C3616   1.398       .  A
C3615      O3619   1.371       .  S
C3616      H3620   1.084       .  S
C3625      C3626   1.400       .  A
C3625      C3630   1.397       .  A
C3625      H3635   1.083       .  S
C3626      C3631   1.479       .  S
C3626      C3627   1.409       .  A
C3627      C3628   1.397       .  A
C3627      O3632   1.372       .  S
C3628      C3629   1.405       .  A
C3629      C3630   1.414       .  A
C3630      O3634   1.372       .  S
C3631      C3636   1.407       .  A
C3631      C3640   1.403       .  A
O3632      H3648   0.992       .  S
O3634      H3645   0.992       .  S
C3636      C3637   1.397       .  A
C3636      O3641   1.372       .  S
C3637      C3638   1.406       .  A
C3637      H3642   1.083       .  S
C3638      C3639   1.411       .  A
C3639      C3640   1.397       .  A
C3639      O3643   1.372       .  S
C3640      H3644   1.084       .  S
O3641      H3646   0.992       .  S
O3643      H3647   0.992       .  S
C3649      C3650   1.404       .  A
C3649      C3654   1.398       .  A
C3649      H3659   1.083       .  S
C3650      C3655   1.477       .  S
C3650      C3651   1.406       .  A
C3651      C3652   1.396       .  A
C3651      O3656   1.372       .  S
C3652      C3653   1.406       .  A
C3652      H3657   1.084       .  S
C3653      C3654   1.410       .  A
C3654      O3658   1.372       .  S
C3655      C3660   1.406       .  A
C3655      C3664   1.401       .  A
O3656      H3672   0.992       .  S
O3658      H3669   0.992       .  S
C3660      C3661   1.398       .  A
C3660      O3665   1.373       .  S
C3661      C3662   1.407       .  A
C3661      H3666   1.083       .  S
C3662      C3663   1.414       .  A
C3663      C3664   1.398       .  A
C3664      H3668   1.084       .  S
O3665      H3670   0.992       .  S
O3667      H3671   0.992       .  S
C3673      C3678   1.393       .  A
C3673      H3683   1.084       .  S
C3674      C3679   1.470       .  S
C3675      C3676   1.401       .  A
C3676      C3677   1.406       .  A
C3676      H3681   1.083       .  S
C3677      C3678   1.417       .  A
C3678      O3682   1.372       .  S
C3679      C3684   1.405       .  A
C3679      C3688   1.401       .  A
O3680      H3696   0.992       .  S
O3682      H3693   0.992       .  S
C3684      C3685   1.399       .  A
C3684      O3689   1.372       .  S
C3685      C3686   1.402       .  A
C3685      H3690   1.084       .  S
C3686      C3687   1.408       .  A
C3687      C3688   1.396       .  A
C3687      O3691   1.371       .  S
C3688      H3692   1.084       .  S
O3689      H3694   0.992       .  S
O3691      H3695   0.990       .  S
C3697      C3698   1.400       .  A
C3697      C3702   1.395       .  A
C3697      H3707   1.084       .  S
C3698      C3703   1.469       .  S
C3698      C3699   1.406       .  A
C3699      C3700   1.397       .  A
C3699      O3704   1.372       .  S
C3700      C3701   1.402       .  A
C3700      H3705   1.083       .  S
C3701      C3702   1.408       .  A
C3702      O3706   1.371       .  S
C3703      C3712   1.400       .  A
O3704      H3720   0.992       .  S
O3706      H3717   0.991       .  S
C3708      C3709   1.395       .  A
C3708      O3713   1.372       .  S
C3709      C3710   1.409       .  A
C3709      H3714   1.083       .  S
C3710      C3711   1.413       .  A
C3711      O3715   1.371       .  S
C3712      H3716   1.084       .  S
O3713      H3718   0.992       .  S
O3715      H3719   0.992       .  S
C3721      C3722   1.402       .  A
C3721      C3726   1.396       .  A
C3721      H3731   1.084       .  S
C3722      C3727   1.478       .  S
C3722      C3723   1.408       .  A
C3723      C3724   1.400       .  A
C3723      O3728   1.372       .  S
C3724      C3725   1.404       .  A
C3724      H3729   1.083       .  S
C3725      C3726   1.405       .  A
C3726      O3730   1.371       .  S
C3727      C3732   1.406       .  A
C3727      C3736   1.403       .  A
O3728      H3744   0.992       .  S
O3730      H3741   0.991       .  S
C3732      C3733   1.398       .  A
C3732      O3737   1.372       .  S
C3733      C3734   1.410       .  A
C3733      H3738   1.083       .  S
C3734      C3735   1.412       .  A
C3735      C3736   1.398       .  A
C3735      O3739   1.371       .  S
C3736      H3740   1.084       .  S
O3737      H3742   0.992       .  S
O3739      H3743   0.992       .  S
C3745      C3746   1.405       .  A
C3745      C3750   1.402       .  A
C3745      H3755   1.083       .  S
C3746      C3747   1.414       .  A
C3747      C3748   1.410       .  A
C3747      O3752   1.371       .  S
C3748      C3749   1.404       .  A
C3748      H3753   1.083       .  S
C3749      C3750   1.411       .  A
C3750      O3754   1.372       .  S
C3751      C3756   1.410       .  A
C3751      C3760   1.410       .  A
O3754      H3765   0.992       .  S
C3756      C3757   1.402       .  A
C3757      C3758   1.405       .  A
C3757      H3762   1.084       .  S
C3758      C3759   1.408       .  A
C3759      C3760   1.411       .  A
C3759      O3763   1.372       .  S
C3760      H3764   1.083       .  S
O3761      H3766   0.992       .  S
O3763      H3767   0.991       .  S
C3769      C3770   1.411       .  A
C3769      C3774   1.412       .  A
C3769      H3779   1.083       .  S
C3770      C3771   1.410       .  A
C3771      C3772   1.401       .  A
C3771      O3776   1.372       .  S
C3772      C3773   1.406       .  A
C3772      H3777   1.084       .  S
C3773      C3774   1.409       .  A
C3774      O3778   1.371       .  S
C3775      C3780   1.415       .  A
C3775      C3784   1.405       .  A
O3778      H3789   0.992       .  S
C3780      C3781   1.411       .  A
C3780      O3785   1.371       .  S
C3781      C3782   1.405       .  A
C3781      H3786   1.083       .  S
C3782      C3783   1.410       .  A
C3783      C3784   1.402       .  A
C3783      O3787   1.371       .  S
C3784      H3788   1.083       .  S
O3785      H3790   0.992       .  S
O3787      H3791   0.991       .  S
C3793      C3794   1.410       .  A
C3793      C3798   1.410       .  A
C3793      H3803   1.083       .  S
C3794      C3799   1.500       .  S
C3794      C3795   1.411       .  A
C3795      C3796   1.402       .  A
C3795      O3800   1.371       .  S
C3796      C3797   1.404       .  A
C3796      H3801   1.084       .  S
C3797      C3798   1.409       .  A
C3798      O3802   1.371       .  S
C3799      C3804   1.415       .  A
C3799      C3808   1.405       .  A
O3800      H3816   0.992       .  S
O3802      H3813   0.992       .  S
C3804      C3805   1.410       .  A
C3804      O3809   1.371       .  S
C3805      C3806   1.403       .  A
C3805      H3810   1.083       .  S
C3806      C3807   1.411       .  A
C3807      C3808   1.401       .  A
C3807      O3811   1.372       .  S
C3808      H3812   1.083       .  S
O3809      H3814   0.992       .  S
O3811      H3815   0.991       .  S
C3817      C3818   1.400       .  A
C3817      C3822   1.397       .  A
C3817      H3827   1.084       .  S
C3818      C3823   1.468       .  S
C3818      C3819   1.406       .  A
C3819      C3820   1.397       .  A
C3819      O3824   1.371       .  S
C3820      C3821   1.400       .  A
C3820      H3825   1.084       .  S
C3821      C3822   1.404       .  A
C3823      C3828   1.404       .  A
C3823      C3832   1.397       .  A
O3824      H3840   0.992       .  S
O3826      H3837   0.992       .  S
C3828      C3829   1.397       .  A
C3828      O3833   1.372       .  S
C3829      C3830   1.406       .  A
C3829      H3834   1.083       .  S
C3830      C3831   1.416       .  A
C3831      C3832   1.396       .  A
C3831      O3835   1.372       .  S
C3832      H3836   1.084       .  S
O3833      H3838   0.992       .  S
O3835      H3839   0.992       .  S
C3841      C3842   1.402       .  A
C3841      C3846   1.400       .  A
C3841      H3851   1.084       .  S
C3842      C3847   1.476       .  S
C3842      C3843   1.404       .  A
C3843      C3844   1.399       .  A
C3843      O3848   1.373       .  S
C3844      C3845   1.409       .  A
C3844      H3849   1.083       .  S
C3845      C3846   1.414       .  A
C3846      O3850   1.371       .  S
C3847      C3852   1.409       .  A
C3847      C3856   1.400       .  A
O3848      H3864   0.992       .  S
O3850      H3861   0.992       .  S
C3852      C3853   1.399       .  A
C3852      O3857   1.371       .  S
C3853      C3854   1.403       .  A
C3853      H3858   1.083       .  S
C3854      C3855   1.408       .  A
C3855      C3856   1.396       .  A
C3855      O3859   1.372   1_565  S
C3856      H3860   1.084       .  S
O3857      H3862   0.992       .  S
O3859      H3863   0.992       .  S
C3865      C3866   1.398       .  A
C3865      C3870   1.395       .  A
C3865      H3875   1.084       .  S
C3866      C3871   1.478       .  S
C3866      C3867   1.408       .  A
C3867      C3868   1.404       .  A
C3867      O3872   1.373       .  S
C3868      C3869   1.408       .  A
C3868      H3873   1.083       .  S
C3869      C3870   1.417       .  A
C3870      O3874   1.372       .  S
C3871      C3876   1.405       .  A
C3871      C3880   1.404       .  A
O3872      H3888   0.992       .  S
O3874      H3885   0.992       .  S
C3876      C3877   1.397       .  A
C3876      O3881   1.372       .  S
C3877      C3878   1.401       .  A
C3878      C3879   1.410       .  A
C3879      C3880   1.400       .  A
C3879      O3883   1.371       .  S
C3880      H3884   1.084       .  S
O3881      H3886   0.992       .  S
O3883      H3887   0.991       .  S
C3889      C3890   1.399       .  A
C3889      C3894   1.398       .  A
C3889      H3899   1.084       .  S
C3890      C3895   1.475       .  S
C3890      C3891   1.409       .  A
C3891      C3892   1.401       .  A
C3891      O3896   1.371       .  S
C3892      C3893   1.402       .  A
C3892      H3897   1.084       .  S
C3893      C3894   1.406       .  A
C3894      O3898   1.372       .  S
C3895      C3900   1.407       .  A
C3895      C3904   1.397       .  A
O3896      H3912   0.992       .  S
O3898      H3909   0.992       .  S
C3900      C3901   1.401       .  A
C3900      O3905   1.372       .  S
C3901      C3902   1.406       .  A
C3901      H3906   1.083       .  S
C3902      C3903   1.418       .  A
C3903      C3904   1.396       .  A
C3903      O3907   1.372       .  S
C3904      H3908   1.084       .  S
O3905      H3910   0.992       .  S
O3907      H3911   0.992       .  S
C3913      C3914   1.401       .  A
C3913      C3918   1.399       .  A
C3913      H3923   1.084       .  S
C3914      C3919   1.468       .  S
C3914      C3915   1.402       .  A
C3915      C3916   1.393       .  A
C3915      O3920   1.372       .  S
C3916      C3917   1.402       .  A
C3916      H3921   1.075       .  S
C3917      C3918   1.411       .  A
C3918      O3922   1.371       .  S
C3919      C3924   1.406       .  A
C3919      C3928   1.396       .  A
O3920      H3936   0.992       .  S
O3922      H3933   0.992       .  S
C3924      C3925   1.398       .  A
C3924      O3929   1.372       .  S
C3925      C3926   1.406       .  A
C3925      H3930   1.083       .  S
C3926      C3927   1.417       .  A
C3927      C3928   1.395       .  A
C3928      H3932   1.084       .  S
O3929      H3934   0.992       .  S
O3931      H3935   0.992       .  S
C3937      C3938   1.404       .  A
C3937      C3942   1.399       .  A
C3937      H3947   1.084       .  S
C3938      C3943   1.479       .  S
C3938      C3939   1.409       .  A
C3939      C3940   1.399       .  A
C3939      O3944   1.373       .  S
C3940      C3941   1.400       .  A
C3940      H3945   1.084       .  S
C3941      C3942   1.404       .  A
C3942      O3946   1.372       .  S
C3943      C3948   1.409       .  A
C3943      C3952   1.401       .  A
O3944      H3960   0.992       .  S
O3946      H3957   0.992       .  S
C3948      C3949   1.398       .  A
C3948      O3953   1.371       .  S
C3949      C3950   1.404       .  A
C3949      H3954   1.083       .  S
C3950      C3951   1.414       .  A
C3951      C3952   1.397       .  A
C3951      O3955   1.372       .  S
C3952      H3956   1.084       .  S
O3953      H3958   0.992       .  S
O3955      H3959   0.992       .  S
C3961      C3962   1.410       .  A
C3961      C3966   1.410       .  A
C3961      H3971   1.083       .  S
C3962      C3967   1.497       .  S
C3962      C3963   1.409       .  A
C3963      C3964   1.401       .  A
C3963      O3968   1.371       .  S
C3964      C3965   1.406       .  A
C3964      H3969   1.084       .  S
C3965      C3966   1.408       .  A
C3966      O3970   1.371       .  S
C3967      C3972   1.413       .  A
C3967      C3976   1.404       .  A
O3968      H3984   0.992       .  S
O3970      H3981   0.992       .  S
C3972      C3973   1.410       .  A
C3972      O3977   1.372       .  S
C3973      C3974   1.404       .  A
C3973      H3978   1.083       .  S
C3974      C3975   1.409       .  A
C3975      C3976   1.403       .  A
C3976      H3980   1.083       .  S
O3977      H3982   0.992       .  S
O3979      H3983   0.991       .  S
C3985      C3986   1.408       .  A
C3985      C3990   1.397       .  A
C3985      H3995   1.083       .  S
C3986      C3991   1.503       .  S
C3986      C3987   1.417       .  A
C3987      C3988   1.410       .  A
C3987      O3992   1.373       .  S
C3988      C3989   1.401       .  A
C3988      H3993   1.080       .  S
C3989      C3990   1.405       .  A
C3990      O3994   1.370       .  S
C3991      C3996   1.418       .  A
C3991      C4000   1.407       .  A
O3992      H4008   0.992       .  S
O3994      H4005   0.992       .  S
C3996      C3997   1.408       .  A
C3996      O4001   1.371       .  S
C3997      C3998   1.402       .  A
C3997      H4002   1.083       .  S
C3998      C3999   1.405       .  A
C3999      C4000   1.398       .  A
C3999      O4003   1.369   1_565  S
C4000      H4004   1.083       .  S
O4001      H4006   0.992       .  S
C4009      C4010   1.407       .  A
C4009      C4014   1.406       .  A
C4009      H4019   1.083       .  S
C4010      C4015   1.491       .  S
C4010      C4011   1.409       .  A
C4011      C4012   1.401       .  A
C4011      O4016   1.372       .  S
C4012      C4013   1.405       .  A
C4012      H4017   1.084       .  S
C4013      C4014   1.406       .  A
C4014      O4018   1.369       .  S
C4015      C4020   1.413       .  A
C4015      C4024   1.401       .  A
O4016      H4032   0.992       .  S
O4018      H4029   0.992       .  S
C4020      C4021   1.409       .  A
C4020      O4025   1.372       .  S
C4021      C4022   1.403       .  A
C4021      H4026   1.083       .  S
C4022      C4023   1.412       .  A
C4023      C4024   1.401       .  A
C4023      O4027   1.373       .  S
C4024      H4028   1.084       .  S
O4025      H4030   0.992       .  S
C4033      C4034   1.404       .  A
C4033      C4038   1.399       .  A
C4033      H4043   1.083       .  S
C4034      C4039   1.480       .  S
C4034      C4035   1.410       .  A
C4035      C4036   1.394       .  A
C4035      O4040   1.372       .  S
C4036      C4037   1.399       .  A
C4036      H4041   1.084       .  S
C4037      C4038   1.405       .  A
C4038      O4042   1.374       .  S
C4039      C4044   1.408       .  A
C4039      C4048   1.402       .  A
O4040      H4056   0.992       .  S
O4042      H4053   0.992       .  S
C4044      C4045   1.398       .  A
C4044      O4049   1.373       .  S
C4045      C4046   1.406       .  A
C4045      H4050   1.083       .  S
C4046      C4047   1.413       .  A
C4047      C4048   1.397       .  A
C4047      O4051   1.372       .  S
C4048      H4052   1.084       .  S
O4049      H4054   0.992       .  S
O4051      H4055   0.992       .  S
C4057      C4058   1.403       .  A
C4057      C4062   1.397       .  A
C4057      H4067   1.083       .  S
C4058      C4063   1.478       .  S
C4058      C4059   1.409       .  A
C4059      C4060   1.397       .  A
C4059      O4064   1.372       .  S
C4060      C4061   1.401       .  A
C4060      H4065   1.084       .  S
C4061      C4062   1.407       .  A
C4062      O4066   1.371       .  S
C4063      C4068   1.408       .  A
C4063      C4072   1.401       .  A
O4064      H4080   0.992       .  S
O4066      H4077   0.991       .  S
C4068      C4069   1.399       .  A
C4068      O4073   1.372       .  S
C4069      C4070   1.407       .  A
C4069      H4074   1.083       .  S
C4070      C4071   1.414       .  A
C4071      C4072   1.397       .  A
C4071      O4075   1.372   1_655  S
C4072      H4076   1.084       .  S
O4073      H4078   0.992       .  S
O4075      H4079   0.992       .  S
C4081      C4082   1.404       .  A
C4081      C4086   1.401       .  A
C4081      H4091   1.083       .  S
C4082      C4087   1.487       .  S
C4082      C4083   1.410       .  A
C4083      C4084   1.397       .  A
C4083      O4088   1.372       .  S
C4084      C4085   1.405       .  A
C4084      H4089   1.083       .  S
C4085      C4086   1.414       .  A
C4086      O4090   1.371       .  S
C4087      C4092   1.410       .  A
C4087      C4096   1.406       .  A
O4088      H4104   0.992       .  S
O4090      H4101   0.992       .  S
C4092      C4093   1.400       .  A
C4092      O4097   1.372       .  S
C4093      C4094   1.402       .  A
C4093      H4098   1.083       .  S
C4094      C4095   1.405       .  A
C4095      C4096   1.400       .  A
C4095      O4099   1.373       .  S
C4096      H4100   1.083       .  S
O4097      H4102   0.992       .  S
O4099      H4103   0.992       .  S
C4105      C4106   1.401       .  A
C4105      C4110   1.398       .  A
C4105      H4115   1.084       .  S
C4106      C4111   1.471       .  S
C4106      C4107   1.404       .  A
C4107      C4108   1.395       .  A
C4107      O4112   1.372       .  S
C4108      C4109   1.408       .  A
C4108      H4113   1.083       .  S
C4109      C4110   1.413       .  A
C4110      O4114   1.372       .  S
C4111      C4116   1.408       .  A
C4111      C4120   1.397       .  A
O4112      H4128   0.992       .  S
O4114      H4125   0.992       .  S
C4116      C4117   1.401       .  A
C4116      O4121   1.372       .  S
C4117      C4118   1.403       .  A
C4117      H4122   1.083       .  S
C4118      C4119   1.412       .  A
C4119      C4120   1.393       .  A
C4119      O4123   1.373   1_565  S
C4120      H4124   1.084       .  S
O4121      H4126   0.992       .  S
C4129      C4130   1.401       .  A
C4129      C4134   1.397       .  A
C4129      H4139   1.084       .  S
C4130      C4135   1.482       .  S
C4130      C4131   1.408       .  A
C4131      C4132   1.400       .  A
C4131      O4136   1.372       .  S
C4132      C4133   1.408       .  A
C4132      H4137   1.083       .  S
C4133      C4134   1.415       .  A
C4134      O4138   1.372       .  S
C4135      C4140   1.407       .  A
C4135      C4144   1.407       .  A
O4136      H4152   0.992       .  S
O4138      H4149   0.992       .  S
C4140      C4141   1.393       .  A
C4140      O4145   1.372       .  S
C4141      C4142   1.403       .  A
C4141      H4146   1.084       .  S
C4142      C4143   1.408       .  A
C4143      C4144   1.404       .  A
C4143      O4147   1.372       .  S
C4144      H4148   1.083       .  S
O4145      H4150   0.992       .  S
O4147      H4151   0.992       .  S
C4153      C4154   1.400       .  A
C4153      C4158   1.398       .  A
C4153      H4163   1.084       .  S
C4154      C4159   1.476       .  S
C4154      C4155   1.406       .  A
C4155      C4156   1.398       .  A
C4155      O4160   1.372       .  S
C4156      C4157   1.408       .  A
C4156      H4161   1.083       .  S
C4157      C4158   1.416       .  A
C4158      O4162   1.372       .  S
C4159      C4164   1.403       .  A
C4159      C4168   1.405       .  A
O4160      H4176   0.992       .  S
O4162      H4173   0.992       .  S
C4164      C4165   1.394       .  A
C4164      O4169   1.372       .  S
C4165      C4166   1.407       .  A
C4165      H4170   1.084       .  S
C4166      C4167   1.408       .  A
C4167      C4168   1.403       .  A
C4167      O4171   1.371       .  S
C4168      H4172   1.084       .  S
O4169      H4174   0.992       .  S
C4177      C4178   1.404       .  A
C4177      C4182   1.398       .  A
C4177      H4187   1.084       .  S
C4178      C4183   1.479       .  S
C4178      C4179   1.408       .  A
C4179      C4180   1.401       .  A
C4179      O4184   1.372       .  S
C4180      C4181   1.401       .  A
C4180      H4185   1.083       .  S
C4181      C4182   1.405       .  A
C4182      O4186   1.371       .  S
O4184      H4200   0.992       .  S
O4186      H4197   0.991       .  S
C4188      C4189   1.401   1_545  A
C4188      O4193   1.372       .  S
C4189      C4190   1.407       .  A
C4189      H4194   1.083       .  S
C4190      C4191   1.416       .  A
C4191      C4192   1.397       .  A
C4191      O4195   1.372       .  S
O4193      H4198   0.992       .  S
O4195      H4199   0.992       .  S
C4201      C4206   1.396       .  A
C4202      C4207   1.473       .  S
C4203      C4204   1.401       .  A
C4203      O4208   1.372       .  S
C4204      C4205   1.407       .  A
C4204      H4209   1.083       .  S
C4205      C4206   1.416       .  A
C4206      O4210   1.372       .  S
C4207      C4212   1.405       .  A
C4207      C4216   1.402       .  A
O4210      H4221   0.992       .  S
C4212      C4213   1.398       .  A
C4212      O4217   1.372       .  S
C4213      C4214   1.402       .  A
C4213      H4218   1.083       .  S
C4214      C4215   1.409       .  A
C4215      C4216   1.397       .  A
C4215      O4219   1.371       .  S
C4216      H4220   1.084       .  S
O4217      H4222   0.992       .  S
O4219      H4223   0.991       .  S
C4225      C4226   1.402       .  A
C4225      C4230   1.397       .  A
C4225      H4235   1.084       .  S
C4226      C4231   1.471       .  S
C4226      C4227   1.405       .  A
C4227      C4228   1.398       .  A
C4227      O4232   1.372       .  S
C4228      C4229   1.402       .  A
C4228      H4233   1.084       .  S
C4229      C4230   1.406       .  A
C4230      O4234   1.371       .  S
C4231      C4236   1.405       .  A
C4231      C4240   1.397       .  A
O4232      H4248   0.992       .  S
O4234      H4245   0.991       .  S
C4236      C4237   1.400       .  A
C4236      O4241   1.372       .  S
C4237      C4238   1.407       .  A
C4237      H4242   1.083       .  S
C4238      C4239   1.417       .  A
C4239      C4240   1.396       .  A
C4239      O4243   1.372       .  S
C4240      H4244   1.084       .  S
O4241      H4246   0.992       .  S
O4243      H4247   0.992       .  S
