geometry optimzed in LAMMPS
_audit_creation_date              2020-11-30 
_audit_creation_method            'lammps2cif' 
_symmetry_space_group_name_H-M    'P1' 
_symmetry_Int_Tables_number       1 
_symmetry_cell_setting            triclinic 
loop_ 
_symmetry_equiv_pos_as_xyz 
  x,y,z 
_cell_length_a                    65.08567453 
_cell_length_b                    63.65155267687791 
_cell_length_c                    38.420688338640744 
_cell_angle_alpha                 90.09674096117033 
_cell_angle_beta                  89.60912640676138 
_cell_angle_gamma                 122.28395740720285 
loop_ 
_atom_site_label 
_atom_site_type_symbol 
_atom_site_fract_x 
_atom_site_fract_y 
_atom_site_fract_z 
_atom_site_charge 
Zr1        Zr  0.60364855  0.43170051  0.50678330     2.17500
O2          O  0.64150641  0.46301299  0.53423073    -0.51700
O3          O  0.60071817  0.39411536  0.52872315    -0.74900
O4          O  0.59586572  0.43294355  0.56913337    -0.81700
O5          O  0.63089669  0.42627197  0.42243616    -0.83500
O6          O  0.56525698  0.44007011  0.57288512    -0.79100
O7          O  0.63765560  0.43135958  0.48075370    -0.90700
O8          O  0.56332345  0.36141241  0.51388901    -0.76700
O9          O  0.56152825  0.40812806  0.52048130    -0.86200
O10         O  0.58465957  0.39994124  0.46395473    -0.85900
O11         O  0.59099673  0.46107105  0.50357348    -0.72600
O12         O  0.61128944  0.45351056  0.45216967    -0.84800
Zr13       Zr  0.53537529  0.42548575  0.42057489     2.26400
Zr14       Zr  0.54857209  0.43659337  0.51658858     2.06300
Zr15       Zr  0.59180526  0.42101215  0.41018527     2.10000
Zr16       Zr  0.54262558  0.37642595  0.47812240     1.78800
O17         O  0.62324044  0.44512550  0.36676989    -0.93600
O18         O  0.51634045  0.35530467  0.52819755    -0.41400
O19         O  0.54904349  0.39682814  0.42285510    -0.78000
O20         O  0.52778184  0.40386971  0.47517609    -0.96700
O21         O  0.55461363  0.45758535  0.46258300    -0.90000
O22         O  0.57775821  0.44874664  0.40652024    -0.92800
C23         C  0.58420526  0.37079043  0.52842858     1.00900
C24         C  0.64353284  0.42907030  0.44958755     1.13800
C25         C  0.58114299  0.43674366  0.58647711     1.04600
O26         O  0.51670728  0.41212910  0.55925906    -0.95000
O27         O  0.51143072  0.43468479  0.50728823    -0.90700
O28         O  0.50710791  0.43593625  0.44875777    -0.83900
C29         C  0.50127786  0.43719903  0.48073797     1.11300
O30         O  0.63451769  0.51558584  0.47067915    -0.97000
Zr31       Zr  0.59645369  0.48106342  0.44783423     1.88900
O32         O  0.54314961  0.46061662  0.38543083    -0.73600
O33         O  0.55794010  0.47616602  0.54073343    -0.52900
O34         O  0.59004151  0.50992961  0.48063507    -0.97600
O35         O  0.62838351  0.50233205  0.40397266    -0.54800
O36         O  0.57890295  0.49455747  0.40251373    -0.74100
C37         C  0.55984301  0.48375542  0.38303967     0.98200
O38         O  0.49442984  0.39592451  0.40005602    -0.63000
O39         O  0.58610318  0.38187442  0.39044277    -0.57800
O40         O  0.53900495  0.41628607  0.35941684    -0.94400
O41         O  0.57251907  0.41369665  0.35438966    -0.92900
O42         O  0.54067020  0.34466252  0.44028892    -0.93200
O43         O  0.50120361  0.34442215  0.46249270    -0.92000
C44         C  0.55417477  0.41329775  0.34164081     1.17000
H45         H  0.59142068  0.38964012  0.46281179     0.33000
H46         H  0.51049793  0.39450709  0.48020767     0.43800
H47         H  0.58084918  0.45568873  0.38332652     0.37400
H48         H  0.59924448  0.47361630  0.52125760     0.33800
H49         H  0.52660521  0.36366259  0.54877178     0.25600
H50         H  0.54921378  0.48147970  0.52571602     0.31600
H51         H  0.58421830  0.51709731  0.46339425     0.37500
H52         H  0.54888270  0.33779161  0.45326775     0.31900
H53         H  0.56879528  0.37163083  0.38370454     0.30800
H54         H  0.61952347  0.45729709  0.35780372     0.32500
H55         H  0.61981987  0.49844720  0.38143715     0.31500
H56         H  0.49729723  0.35162693  0.44271905     0.35500
H57         H  0.49584107  0.38344860  0.38665160     0.28200
H58         H  0.64315002  0.45461223  0.55471680     0.32400
H59         H  0.63659123  0.53069131  0.45974439     0.35300
H60         H  0.59516420  0.38602962  0.36812420     0.27900
H61         H  0.48522031  0.38691942  0.42127335     0.40800
H62         H  0.51899259  0.39847026  0.56575193     0.30800
H63         H  0.50438014  0.36039487  0.52824273     0.38400
H64         H  0.63663525  0.49302056  0.40343201     0.30300
H65         H  0.54902849  0.47178466  0.56320046     0.30300
H66         H  0.63811102  0.47523768  0.54412992     0.30600
Zr67       Zr  0.59504347  0.42323410  0.00402079     2.17500
O68         O  0.63415621  0.45031526  0.03177999    -0.51700
O69         O  0.58839006  0.38432731  0.02695834    -0.74900
O70         O  0.58810432  0.42591489  0.06649276    -0.81700
O71         O  0.62060122  0.41525817  0.91896611    -0.83500
O72         O  0.55789149  0.43361467  0.07081523    -0.79100
O73         O  0.62788261  0.42062976  0.97703107    -0.90700
O74         O  0.54980010  0.35347317  0.01365838    -0.76700
O75         O  0.55293945  0.40210588  0.01778635    -0.86200
O76         O  0.57431653  0.39170459  0.96134911    -0.85900
O77         O  0.58504681  0.45479910  0.00095521    -0.72600
O78         O  0.60422961  0.44544909  0.94953486    -0.84800
Zr79       Zr  0.52928451  0.42180001  0.91777033     2.26400
Zr80       Zr  0.54256925  0.43266150  0.01405792     2.06300
Zr81       Zr  0.58304612  0.41321706  0.90764512     2.10000
Zr82       Zr  0.53225268  0.37064364  0.97552976     1.78800
O83         O  0.61416245  0.43813591  0.86419942    -0.93600
O84         O  0.50309113  0.35201864  0.02334934    -0.41400
O85         O  0.54041394  0.39120889  0.92015786    -0.78000
O86         O  0.52017156  0.40032126  0.97263344    -0.96700
O87         O  0.55008402  0.45361987  0.95984469    -0.90000
O88         O  0.57154709  0.44294884  0.90364416    -0.92800
C89         C  0.57057476  0.36152776  0.02788612     1.00900
C90         C  0.63331404  0.41769578  0.94580683     1.13800
C91         C  0.57360964  0.42989349  0.08419912     1.04600
O92         O  0.50919318  0.40934517  0.05516121    -0.95000
O93         O  0.50814061  0.43572418  0.00283421    -0.90700
O94         O  0.50209994  0.43384363  0.94428978    -0.83900
C95         C  0.49763856  0.43734118  0.97593393     1.11300
O96         O  0.62905737  0.50768409  0.97215402    -0.97000
Zr97       Zr  0.59187883  0.47501606  0.94491999     1.88900
O98         O  0.53825614  0.45799454  0.88463331    -0.73600
O99         O  0.55565957  0.47347837  0.03769574    -0.52900
O100        O  0.58924572  0.50890553  0.96924227    -0.97600
O101        O  0.62598867  0.49306203  0.90415815    -0.54800
O102        O  0.57638153  0.48974656  0.89810807    -0.74100
C103        C  0.55647758  0.48028964  0.88055673     0.98200
O104        O  0.48906834  0.39228761  0.89481662    -0.63000
O105        O  0.57611683  0.37388735  0.88645980    -0.57800
O106        O  0.53313410  0.41404961  0.85632586    -0.94400
O107        O  0.56373710  0.40674484  0.85236779    -0.92900
O108        O  0.52784435  0.33537570  0.94359757    -0.93200
O109        O  0.49182666  0.34188773  0.95265534    -0.92000
C110        C  0.54719603  0.40923528  0.83905529     1.17000
H111        H  0.57998029  0.38044034  0.96047960     0.33000
H112        H  0.50293211  0.39206531  0.97750811     0.43800
H113        H  0.57504491  0.44994390  0.88045686     0.37400
H114        H  0.59393163  0.46719580  0.01862375     0.33800
H115        H  0.51220654  0.36134886  0.04428367     0.25600
H116        H  0.54801776  0.47998654  0.02259708     0.31600
H117        H  0.57330584  0.50568864  0.96162995     0.37500
H118        H  0.54434850  0.33821115  0.94287117     0.31900
H119        H  0.55826828  0.36311651  0.88387251     0.30800
H120        H  0.61247869  0.42609739  0.84632044     0.32500
H121        H  0.62965659  0.51004829  0.89964872     0.31500
H122        H  0.48945789  0.35162470  0.93485918     0.35500
H123        H  0.47859093  0.38476252  0.91565039     0.28200
H124        H  0.63495387  0.43997835  0.05030943     0.32400
H125        H  0.63829864  0.49975751  0.97724314     0.35300
H126        H  0.58249902  0.37737960  0.86230186     0.27900
H127        H  0.48365531  0.40273528  0.88437458     0.40800
H128        H  0.51057204  0.42188875  0.07188300     0.30800
H129        H  0.49135480  0.35714992  0.01950309     0.38400
H130        H  0.61908651  0.48409834  0.88203719     0.30300
H131        H  0.54695529  0.47002742  0.06023628     0.30300
H132        H  0.63243253  0.46288626  0.04435521     0.30600
Zr133      Zr  0.40910498  0.57997555  0.25469020     2.17500
O134        O  0.36940157  0.55028042  0.27988695    -0.51700
O135        O  0.41314343  0.61793334  0.27691709    -0.74900
O136        O  0.41458511  0.57592782  0.31701412    -0.81700
O137        O  0.38535698  0.58980672  0.17031019    -0.83500
O138        O  0.44488635  0.56836581  0.32119559    -0.79100
O139        O  0.37601705  0.58130467  0.22772870    -0.90700
O140        O  0.45200693  0.64950092  0.26591354    -0.76700
O141        O  0.45092491  0.60141695  0.26990699    -0.86200
O142        O  0.43034132  0.61269058  0.21342207    -0.85900
O143        O  0.41986959  0.54912377  0.25070452    -0.72600
O144        O  0.40174677  0.55982512  0.19894402    -0.84800
Zr145      Zr  0.47791779  0.58539786  0.16925618     2.26400
Zr146      Zr  0.46205658  0.57136489  0.26466073     2.06300
Zr147      Zr  0.42367676  0.59320009  0.15857020     2.10000
Zr148      Zr  0.47190900  0.63413733  0.22903405     1.78800
O149        O  0.39433855  0.56772455  0.11398515    -0.93600
O150        O  0.49923227  0.65123813  0.27855263    -0.41400
O151        O  0.46604881  0.61543581  0.17269253    -0.78000
O152        O  0.48505756  0.60532079  0.22510261    -0.96700
O153        O  0.45623528  0.55210592  0.20943655    -0.90000
O154        O  0.43599466  0.56422047  0.15407528    -0.92800
C155        C  0.43055009  0.64087530  0.27838546     1.00900
C156        C  0.37151772  0.58551920  0.19682789     1.13800
C157        C  0.42864155  0.57144594  0.33456243     1.04600
O158        O  0.49064811  0.58612471  0.31271930    -0.95000
O159        O  0.49996508  0.57434383  0.25483362    -0.90700
O160        O  0.50374951  0.57189294  0.19634149    -0.83900
C161        C  0.50938738  0.57055841  0.22818632     1.11300
O162        O  0.37577415  0.49801776  0.21767737    -0.97000
Zr163      Zr  0.41467566  0.53087107  0.19376305     1.88900
O164        O  0.46915404  0.55047500  0.13280785    -0.73600
O165        O  0.44911946  0.52884574  0.27976810    -0.52900
O166        O  0.41745531  0.49792039  0.22096320    -0.97600
O167        O  0.38369447  0.51312009  0.14869323    -0.54800
O168        O  0.43175615  0.51761196  0.14768850    -0.74100
C169        C  0.45140619  0.52786891  0.12921340     0.98200
O170        O  0.51984793  0.61499301  0.15176070    -0.63000
O171        O  0.42797589  0.63139712  0.13726628    -0.57800
O172        O  0.47652454  0.59654025  0.10837470    -0.94400
O173        O  0.44544375  0.60307750  0.10429908    -0.92900
O174        O  0.47451814  0.66861967  0.19727266    -0.93200
O175        O  0.51225930  0.66683179  0.20960658    -0.92000
C176        C  0.46285504  0.60180858  0.09114283     1.17000
H177        H  0.42429437  0.62361873  0.21261468     0.33000
H178        H  0.50218008  0.61392064  0.23046942     0.43800
H179        H  0.43334331  0.55808423  0.13048753     0.37400
H180        H  0.41069596  0.53618387  0.26773024     0.33800
H181        H  0.48856001  0.64405330  0.29928502     0.25600
H182        H  0.45924576  0.52505359  0.26495960     0.31600
H183        H  0.41505419  0.48640965  0.20181052     0.37500
H184        H  0.45864351  0.66695294  0.20099454     0.31900
H185        H  0.44526936  0.64214869  0.13031193     0.30800
H186        H  0.39814009  0.57902164  0.09394435     0.32500
H187        H  0.38216963  0.49727574  0.14227169     0.31500
H188        H  0.51624063  0.65921517  0.19034133     0.35500
H189        H  0.51950516  0.62891002  0.14094519     0.28200
H190        H  0.36922205  0.55690867  0.30313901     0.32400
H191        H  0.37134341  0.48286940  0.20429530     0.35300
H192        H  0.41894985  0.62665221  0.11505890     0.27900
H193        H  0.52860389  0.62193291  0.17391129     0.40800
H194        H  0.49953016  0.60446612  0.31114595     0.30800
H195        H  0.50862920  0.64311373  0.27795253     0.38400
H196        H  0.39140203  0.52389433  0.12806541     0.30300
H197        H  0.45535631  0.53004282  0.30359398     0.30300
H198        H  0.36984941  0.53524791  0.28463503     0.30600
Zr199      Zr  0.41049310  0.58234949  0.75812851     2.17500
O200        O  0.37273243  0.55384853  0.78905280    -0.51700
O201        O  0.41818173  0.62240640  0.77968187    -0.74900
O202        O  0.41840387  0.58187641  0.82033736    -0.81700
O203        O  0.38284331  0.58774249  0.67547993    -0.83500
O204        O  0.44820703  0.57359416  0.82358135    -0.79100
O205        O  0.37648310  0.58334655  0.73398404    -0.90700
O206        O  0.45596488  0.65205148  0.76076965    -0.76700
O207        O  0.45298977  0.60465278  0.76807769    -0.86200
O208        O  0.42940945  0.61183077  0.71218850    -0.85900
O209        O  0.42083156  0.55101119  0.75583879    -0.72600
O210        O  0.40015876  0.55804197  0.70522420    -0.84800
Zr211      Zr  0.47426792  0.58116368  0.66898497     2.26400
Zr212      Zr  0.46350747  0.57422631  0.76640222     2.06300
Zr213      Zr  0.41940757  0.58833810  0.66013634     2.10000
Zr214      Zr  0.47188634  0.63389327  0.72211281     1.78800
O215        O  0.38632246  0.55922598  0.62248256    -0.93600
O216        O  0.50438735  0.65769638  0.76368302    -0.41400
O217        O  0.46250836  0.61125302  0.66880072    -0.78000
O218        O  0.48453256  0.60472848  0.72186317    -0.96700
O219        O  0.45489590  0.55106031  0.71384320    -0.90000
O220        O  0.43171128  0.55919398  0.65760250    -0.92800
C221        C  0.43618957  0.64516715  0.77745445     1.00900
C222        C  0.37056425  0.58570139  0.70301291     1.13800
C223        C  0.43290387  0.57788975  0.83750740     1.04600
O224        O  0.49711577  0.60182344  0.80439570    -0.95000
O225        O  0.49819914  0.57165882  0.75481332    -0.90700
O226        O  0.50140079  0.56947560  0.69601970    -0.83900
C227        C  0.50731387  0.56805818  0.72764312     1.11300
O228        O  0.37427963  0.49735332  0.72758251    -0.97000
Zr229      Zr  0.41288106  0.52862618  0.70124006     1.88900
O230        O  0.46564787  0.54460718  0.63789156    -0.73600
O231        O  0.45397092  0.53563602  0.79428127    -0.52900
O232        O  0.41576430  0.49692855  0.73213530    -0.97600
O233        O  0.38001390  0.50763767  0.65926582    -0.54800
O234        O  0.42862871  0.51254022  0.65551392    -0.74100
C235        C  0.44796716  0.52193490  0.63610786     0.98200
O236        O  0.51452371  0.60995995  0.64488184    -0.63000
O237        O  0.42275381  0.62472638  0.63336754    -0.57800
O238        O  0.46871976  0.58620357  0.60708425    -0.94400
O239        O  0.43774266  0.59299531  0.60365317    -0.92900
O240        O  0.46988256  0.66405013  0.68565424    -0.93200
O241        O  0.51087634  0.66301249  0.69479449    -0.92000
C242        C  0.45422378  0.59032046  0.58995846     1.17000
H243        H  0.42353754  0.62292817  0.71111994     0.33000
H244        H  0.50191884  0.61345994  0.72565118     0.43800
H245        H  0.42785053  0.55133498  0.63502615     0.37400
H246        H  0.41253819  0.53919664  0.77449762     0.33800
H247        H  0.50442713  0.67309324  0.76765684     0.25600
H248        H  0.45740791  0.52675499  0.77626494     0.31600
H249        H  0.42988802  0.49737520  0.72147665     0.37500
H250        H  0.45697010  0.66589837  0.69603781     0.31900
H251        H  0.44013876  0.63563706  0.62698522     0.30800
H252        H  0.38969589  0.56781106  0.59975602     0.32500
H253        H  0.38778880  0.51370599  0.63615572     0.31500
H254        H  0.51661303  0.65247864  0.68555978     0.35500
H255        H  0.51366086  0.62409316  0.63614403     0.28200
H256        H  0.37202049  0.56360245  0.80860835     0.32400
H257        H  0.36630696  0.50647845  0.73365407     0.35300
H258        H  0.41424845  0.61871015  0.61084997     0.27900
H259        H  0.52528677  0.61667996  0.66537946     0.40800
H260        H  0.49734853  0.59079553  0.82232380     0.30800
H261        H  0.49824955  0.64833622  0.78581165     0.38400
H262        H  0.37018631  0.51515664  0.66259401     0.30300
H263        H  0.46693645  0.54075842  0.81171912     0.30300
H264        H  0.37550416  0.54155384  0.80018166     0.30600
Zr265      Zr  0.11050985  0.57951586  0.18922877     2.17500
O266        O  0.09729272  0.60634389  0.21146526    -0.51700
O267        O  0.08384370  0.54272495  0.22327020    -0.74900
O268        O  0.07067793  0.56666779  0.16302111    -0.81700
O269        O  0.16322448  0.60168902  0.25295607    -0.83500
O270        O  0.07390801  0.56122089  0.10504059    -0.79100
O271        O  0.12350108  0.58993869  0.25029551    -0.90700
O272        O  0.09059597  0.51230086  0.20854134    -0.76700
O273        O  0.10006022  0.54747550  0.14777667    -0.86200
O274        O  0.13357642  0.56156102  0.20316096    -0.85900
O275        O  0.12222580  0.60008772  0.13360992    -0.72600
O276        O  0.15271426  0.61255695  0.18553410    -0.84800
Zr277      Zr  0.17732016  0.58280226  0.10155661     2.26400
Zr278      Zr  0.11303343  0.56787707  0.09265391     2.06300
Zr279      Zr  0.17541189  0.59373561  0.19797312     2.10000
Zr280      Zr  0.12246919  0.52929444  0.16264517     1.78800
O281        O  0.20892074  0.63391472  0.21764717    -0.93600
O282        O  0.08776502  0.49428534  0.13390385    -0.41400
O283        O  0.16496555  0.56145384  0.15689196    -0.78000
O284        O  0.13527943  0.54892707  0.10609990    -0.96700
O285        O  0.15448014  0.60075033  0.08772290    -0.90000
O286        O  0.18752351  0.61437496  0.14344728    -0.92800
C287        C  0.07993248  0.52083631  0.22690115     1.00900
C288        C  0.14344836  0.59740590  0.26694699     1.13800
C289        C  0.06217242  0.56137916  0.13172968     1.04600
O290        O  0.08261074  0.52924292  0.06473320    -0.95000
O291        O  0.12656150  0.56298651  0.03656153    -0.90700
O292        O  0.16735870  0.58030770  0.03975023    -0.83900
C293        C  0.14747451  0.57147449  0.02263126     1.11300
O294        O  0.15409185  0.66156326  0.15020433    -0.97000
Zr295      Zr  0.16453463  0.63217248  0.12945944     1.88900
O296        O  0.20988626  0.62262514  0.07744749    -0.73600
O297        O  0.10683705  0.59401657  0.05347911    -0.52900
O298        O  0.15096709  0.64756641  0.08253583    -0.97600
O299        O  0.19779280  0.66757077  0.15991239    -0.54800
O300        O  0.19824875  0.64991517  0.08829467    -0.74100
C301        C  0.21252581  0.64407894  0.07434756     0.98200
O302        O  0.18757756  0.55547884  0.07242725    -0.63000
O303        O  0.18171381  0.57046315  0.24242337    -0.57800
O304        O  0.21371427  0.58758508  0.12724105    -0.94400
O305        O  0.21178564  0.59338331  0.18526808    -0.92900
O306        O  0.13594372  0.51195630  0.20681600    -0.93200
O307        O  0.13234997  0.49993484  0.14004396    -0.92000
C308        C  0.22215552  0.59099078  0.15832519     1.17000
H309        H  0.13020729  0.55490322  0.22650864     0.33000
H310        H  0.13207276  0.53652071  0.08882355     0.43800
H311        H  0.20473522  0.62661810  0.14360779     0.37400
H312        H  0.11259337  0.60715603  0.12866991     0.33800
H313        H  0.08201234  0.48024111  0.15037147     0.25600
H314        H  0.12302123  0.60549965  0.04295309     0.31600
H315        H  0.16596803  0.66224568  0.07307127     0.37500
H316        H  0.15373711  0.52378676  0.20813599     0.31900
H317        H  0.19383113  0.58325758  0.25839171     0.30800
H318        H  0.21518891  0.63009974  0.23853240     0.32500
H319        H  0.21266888  0.66793507  0.15306068     0.31500
H320        H  0.14287110  0.50834738  0.11951597     0.35500
H321        H  0.18596994  0.54379938  0.09081622     0.28200
H322        H  0.08217232  0.59507767  0.22467021     0.32400
H323        H  0.16534419  0.67737440  0.13792881     0.35300
H324        H  0.16645659  0.56171375  0.25621312     0.27900
H325        H  0.17384036  0.54507530  0.05662419     0.40800
H326        H  0.08865713  0.51799548  0.06744346     0.30800
H327        H  0.07489112  0.49811724  0.13456313     0.38400
H328        H  0.19521777  0.66254820  0.18470949     0.30300
H329        H  0.09707401  0.58285506  0.03418464     0.30300
H330        H  0.09188426  0.61132977  0.19077284     0.30600
Zr331      Zr  0.11189489  0.58553201  0.69036510     2.17500
O332        O  0.10115915  0.61472746  0.71075029    -0.51700
O333        O  0.08424024  0.54911098  0.72364794    -0.74900
O334        O  0.07161579  0.57001997  0.66399805    -0.81700
O335        O  0.16033913  0.60039722  0.75719231    -0.83500
O336        O  0.07624427  0.56799843  0.60544218    -0.79100
O337        O  0.12169865  0.59189101  0.75232191    -0.90700
O338        O  0.09028005  0.51841555  0.70778713    -0.76700
O339        O  0.10158142  0.55529708  0.64635339    -0.86200
O340        O  0.13336050  0.56570672  0.70362823    -0.85900
O341        O  0.12540843  0.60840713  0.63672648    -0.72600
O342        O  0.15457930  0.61743469  0.69063885    -0.84800
Zr343      Zr  0.17977159  0.58963657  0.60440261     2.26400
Zr344      Zr  0.11671979  0.57797288  0.59310132     2.06300
Zr345      Zr  0.17563090  0.59677071  0.70171921     2.10000
Zr346      Zr  0.12182990  0.53489767  0.66076098     1.78800
O347        O  0.20800704  0.63616124  0.72552858    -0.93600
O348        O  0.08671453  0.50388195  0.62771805    -0.41400
O349        O  0.16488058  0.56595820  0.65785196    -0.78000
O350        O  0.13714166  0.55685246  0.60581667    -0.96700
O351        O  0.15867917  0.60973997  0.59190183    -0.90000
O352        O  0.18971262  0.61966108  0.64894886    -0.92800
C353        C  0.07999683  0.52710501  0.72685825     1.00900
C354        C  0.14051282  0.59686639  0.77005197     1.13800
C355        C  0.06349165  0.56531631  0.63249734     1.04600
O356        O  0.08973906  0.54150554  0.55814941    -0.95000
O357        O  0.13266931  0.57816949  0.53654111    -0.90700
O358        O  0.17126234  0.58694575  0.54139522    -0.83900
C359        C  0.15264494  0.58237364  0.52338866     1.11300
O360        O  0.15622797  0.66654950  0.66166830    -0.97000
Zr361      Zr  0.16807454  0.63932716  0.63643927     1.88900
O362        O  0.21282653  0.63026446  0.58280433    -0.73600
O363        O  0.11136389  0.60637210  0.55751090    -0.52900
O364        O  0.15628987  0.65712130  0.59049711    -0.97600
O365        O  0.20070832  0.67457431  0.66798554    -0.54800
O366        O  0.20342009  0.65854860  0.59871027    -0.74100
C367        C  0.21702156  0.65248351  0.58316679     0.98200
O368        O  0.19280918  0.56421858  0.57633756    -0.63000
O369        O  0.18293146  0.57310734  0.74419012    -0.57800
O370        O  0.21395438  0.59043951  0.63227433    -0.94400
O371        O  0.21125585  0.59480299  0.69048614    -0.92900
O372        O  0.13365997  0.51399356  0.70150464    -0.93200
O373        O  0.12721380  0.50257436  0.63737270    -0.92000
C374        C  0.22168223  0.59242172  0.66365336     1.17000
H375        H  0.12930389  0.55811215  0.72640020     0.33000
H376        H  0.13393466  0.54503501  0.58758829     0.43800
H377        H  0.20700243  0.63146821  0.65014105     0.37400
H378        H  0.11634114  0.61615852  0.63250671     0.33800
H379        H  0.07295763  0.49681455  0.64444493     0.25600
H380        H  0.09838637  0.59551126  0.54091028     0.31600
H381        H  0.15988823  0.65153894  0.56850633     0.37500
H382        H  0.13176206  0.51938946  0.72484434     0.31900
H383        H  0.19237662  0.58512725  0.76288405     0.30800
H384        H  0.22244844  0.64104479  0.71083448     0.32500
H385        H  0.21506341  0.67317892  0.66516949     0.31500
H386        H  0.13809816  0.51036377  0.61698030     0.35500
H387        H  0.17989923  0.55357310  0.55952643     0.28200
H388        H  0.08592927  0.60442415  0.72421932     0.32400
H389        H  0.16621158  0.68267465  0.64945759     0.35300
H390        H  0.16686243  0.56141270  0.75487196     0.27900
H391        H  0.20697866  0.57598617  0.56178054     0.40800
H392        H  0.07804061  0.54504449  0.54767375     0.30800
H393        H  0.08326418  0.51345734  0.61113196     0.38400
H394        H  0.19613791  0.67068787  0.69284550     0.30300
H395        H  0.10381163  0.61285291  0.57303554     0.30300
H396        H  0.09614443  0.61964809  0.68957454     0.30600
Zr397      Zr  0.89328121  0.41512175  0.43985547     2.17500
O398        O  0.90406010  0.38655059  0.46250958    -0.51700
O399        O  0.92022815  0.45124800  0.47414061    -0.74900
O400        O  0.93363307  0.42841831  0.41489779    -0.81700
O401        O  0.84245051  0.39904847  0.50385415    -0.83500
O402        O  0.92907138  0.42702898  0.35615204    -0.79100
O403        O  0.88075338  0.40649496  0.50090695    -0.90700
O404        O  0.91533299  0.48285552  0.45947952    -0.76700
O405        O  0.90583842  0.44724252  0.39804105    -0.86200
O406        O  0.87197306  0.43516541  0.45294990    -0.85900
O407        O  0.88122877  0.39400484  0.38489220    -0.72600
O408        O  0.85055134  0.38367585  0.43624161    -0.84800
Zr409      Zr  0.82980923  0.41628735  0.35139201     2.26400
Zr410      Zr  0.89283443  0.42652021  0.34352908     2.06300
Zr411      Zr  0.82970074  0.40460664  0.44792627     2.10000
Zr412      Zr  0.88521692  0.46760481  0.41207557     1.78800
O413        O  0.79622379  0.36444960  0.46821689    -0.93600
O414        O  0.92254341  0.50224520  0.38690312    -0.41400
O415        O  0.84242242  0.43723834  0.40651903    -0.78000
O416        O  0.87268757  0.44801615  0.35560355    -0.96700
O417        O  0.85075934  0.39600294  0.33862417    -0.90000
O418        O  0.81718775  0.38416570  0.39344251    -0.92800
C419        C  0.92487506  0.47337992  0.47806013     1.00900
C420        C  0.86150954  0.40165913  0.51774285     1.13800
C421        C  0.94150430  0.43021683  0.38341373     1.04600
O422        O  0.92562857  0.46652275  0.32150755    -0.95000
O423        O  0.87887298  0.42880005  0.28701603    -0.90700
O424        O  0.84007014  0.41971924  0.28976554    -0.83900
C425        C  0.85922135  0.42445934  0.27291330     1.11300
O426        O  0.84763987  0.33310465  0.39663311    -0.97000
Zr427      Zr  0.83841362  0.36416275  0.38029296     1.88900
O428        O  0.79631096  0.37742561  0.32586018    -0.73600
O429        O  0.89973911  0.40295122  0.29998451    -0.52900
O430        O  0.84958310  0.34787100  0.33114782    -0.97600
O431        O  0.80576282  0.32999509  0.41373902    -0.54800
O432        O  0.80406551  0.34789322  0.34119875    -0.74100
C433        C  0.79148330  0.35493873  0.32516792     0.98200
O434        O  0.82318132  0.44690968  0.32460409    -0.63000
O435        O  0.82164144  0.42753696  0.49096787    -0.57800
O436        O  0.79529926  0.41577978  0.37739345    -0.94400
O437        O  0.79500684  0.40778421  0.43507137    -0.92900
O438        O  0.86811019  0.48248504  0.45484459    -0.93200
O439        O  0.88002023  0.49989912  0.38821828    -0.92000
C440        C  0.78631505  0.41238655  0.40829818     1.17000
H441        H  0.87524533  0.44200342  0.47613482     0.33000
H442        H  0.87702419  0.46059368  0.33805567     0.43800
H443        H  0.79979937  0.37273516  0.39355220     0.37400
H444        H  0.88993213  0.38585457  0.38050766     0.33800
H445        H  0.93413864  0.49668259  0.38668637     0.25600
H446        H  0.91637369  0.41450430  0.29087470     0.31600
H447        H  0.84419843  0.35264977  0.31021951     0.37500
H448        H  0.88216537  0.49518946  0.46847171     0.31900
H449        H  0.81222233  0.41536549  0.50966218     0.30800
H450        H  0.78554824  0.36833052  0.48144428     0.32500
H451        H  0.79129046  0.33094890  0.40956460     0.31500
H452        H  0.86233063  0.49149613  0.38415039     0.35500
H453        H  0.82406845  0.45755574  0.34410750     0.28200
H454        H  0.92126254  0.39724766  0.46959433     0.32400
H455        H  0.83507553  0.31751064  0.38525748     0.35300
H456        H  0.83760927  0.43936114  0.50152448     0.27900
H457        H  0.83811860  0.45787064  0.31086328     0.40800
H458        H  0.93566959  0.46252598  0.30686086     0.30800
H459        H  0.91884677  0.50261955  0.36203753     0.38400
H460        H  0.80998070  0.33495424  0.43835943     0.30300
H461        H  0.90084992  0.39026339  0.31322394     0.30300
H462        H  0.90446803  0.37748385  0.44181711     0.30600
Zr463      Zr  0.89178106  0.41774903  0.93930374     2.17500
O464        O  0.90448228  0.39085680  0.96241877    -0.51700
O465        O  0.91924667  0.45421313  0.97223569    -0.74900
O466        O  0.93246510  0.43326553  0.91311673    -0.81700
O467        O  0.84160669  0.40537876  0.00336362    -0.83500
O468        O  0.92579941  0.42366312  0.85576341    -0.79100
O469        O  0.87835451  0.40903239  0.99995425    -0.90700
O470        O  0.91724305  0.48677907  0.95307296    -0.76700
O471        O  0.90459436  0.44725208  0.89372616    -0.86200
O472        O  0.87283055  0.44051672  0.95011664    -0.85900
O473        O  0.87729268  0.39287551  0.88760189    -0.72600
O474        O  0.84843323  0.38833595  0.93889962    -0.84800
Zr475      Zr  0.82853751  0.41782011  0.85033136     2.26400
Zr476      Zr  0.88938568  0.42290777  0.84221351     2.06300
Zr477      Zr  0.83008109  0.41208674  0.94749217     2.10000
Zr478      Zr  0.88678882  0.47067623  0.90557398     1.78800
O479        O  0.79488958  0.37813253  0.97754656    -0.93600
O480        O  0.92487470  0.50317422  0.87932001    -0.41400
O481        O  0.84323742  0.44246453  0.90258089    -0.78000
O482        O  0.87201679  0.44742547  0.85194496    -0.96700
O483        O  0.84663641  0.39424377  0.84024774    -0.90000
O484        O  0.81532936  0.38805159  0.89595041    -0.92800
C485        C  0.92548089  0.47698306  0.97374730     1.00900
C486        C  0.85965561  0.40565161  0.01689834     1.13800
C487        C  0.93974005  0.43215552  0.88216096     1.04600
O488        O  0.92346961  0.45777701  0.81180800    -0.95000
O489        O  0.87712951  0.42775937  0.78562850    -0.90700
O490        O  0.83915850  0.42104202  0.78882766    -0.83900
C491        C  0.85805021  0.42514051  0.77184896     1.11300
O492        O  0.83923620  0.33358747  0.91281285    -0.97000
Zr493      Zr  0.83387474  0.36500329  0.88613713     1.88900
O494        O  0.79523196  0.37886256  0.82568647    -0.73600
O495        O  0.88976396  0.39195016  0.80522303    -0.52900
O496        O  0.84350252  0.34277702  0.84406482    -0.97600
O497        O  0.79923488  0.33460009  0.92113512    -0.54800
O498        O  0.80101356  0.34848994  0.84415105    -0.74100
C499        C  0.78974936  0.35619843  0.82606288     0.98200
O500        O  0.82144821  0.44723727  0.82074835    -0.63000
O501        O  0.83048646  0.44354533  0.98421658    -0.57800
O502        O  0.79283956  0.41642744  0.87418917    -0.94400
O503        O  0.79455068  0.41300803  0.93268247    -0.92900
O504        O  0.87444976  0.49236173  0.94429839    -0.93200
O505        O  0.88281991  0.50068270  0.87191384    -0.92000
C506        C  0.78444917  0.41468639  0.90520901     1.17000
H507        H  0.87668915  0.44826604  0.97277742     0.33000
H508        H  0.87661289  0.45909221  0.83300610     0.43800
H509        H  0.79784175  0.37732587  0.89672475     0.37400
H510        H  0.88511401  0.38364588  0.88473607     0.33800
H511        H  0.93096170  0.51750831  0.89528388     0.25600
H512        H  0.90350015  0.40173049  0.78887302     0.31600
H513        H  0.84108846  0.34806869  0.82103451     0.37500
H514        H  0.88964541  0.50843208  0.94915404     0.31900
H515        H  0.82811336  0.45413507  0.96800214     0.30800
H516        H  0.78762360  0.38610119  0.99050018     0.32500
H517        H  0.78499322  0.33415263  0.91127504     0.31500
H518        H  0.86613829  0.49098758  0.86246055     0.35500
H519        H  0.81975447  0.45684393  0.83960808     0.28200
H520        H  0.91925107  0.40212763  0.97602325     0.32400
H521        H  0.85570772  0.34309829  0.92300038     0.35300
H522        H  0.81513787  0.43445329  0.99777171     0.27900
H523        H  0.83720119  0.45936425  0.80959476     0.40800
H524        H  0.93267160  0.47015081  0.83022942     0.30800
H525        H  0.93624211  0.49748732  0.88245474     0.38400
H526        H  0.80166227  0.34263161  0.94411783     0.30300
H527        H  0.89516413  0.38324970  0.82035814     0.30300
H528        H  0.91052396  0.38621249  0.94193731     0.30600
Zr529      Zr  0.58557898  0.11389322  0.07537633     2.17500
O530        O  0.61199809  0.10066701  0.05296004    -0.51700
O531        O  0.54940934  0.08775391  0.04183615    -0.74900
O532        O  0.56982964  0.07196475  0.10125908    -0.81700
O533        O  0.60500735  0.16676854  0.01115614    -0.83500
O534        O  0.56829382  0.07601082  0.15996184    -0.79100
O535        O  0.59497103  0.12659292  0.01426335    -0.90700
O536        O  0.52071457  0.09634262  0.05610595    -0.76700
O537        O  0.55503682  0.10375389  0.11776306    -0.86200
O538        O  0.56876737  0.13843459  0.06267429    -0.85900
O539        O  0.60646939  0.12538670  0.13001892    -0.72600
O540        O  0.61831824  0.15698145  0.07787355    -0.84800
Zr541      Zr  0.59106053  0.18252702  0.16403104     2.26400
Zr542      Zr  0.57548352  0.11629753  0.17201716     2.06300
Zr543      Zr  0.60074931  0.18108630  0.06706008     2.10000
Zr544      Zr  0.53761962  0.12717775  0.10407078     1.78800
O545        O  0.64072612  0.21464745  0.04767457    -0.93600
O546        O  0.50380164  0.08900800  0.12923649    -0.41400
O547        O  0.56963230  0.17032640  0.10940440    -0.78000
O548        O  0.55745279  0.13980585  0.16018400    -0.96700
O549        O  0.60820925  0.15847789  0.17591285    -0.90000
O550        O  0.62175791  0.19317895  0.12095068    -0.92800
C551        C  0.52846110  0.08478798  0.03793475     1.00900
C552        C  0.60119082  0.14666370  0.99736472     1.13800
C553        C  0.56565402  0.06329004  0.13275461     1.04600
O554        O  0.53472214  0.08767875  0.19491230    -0.95000
O555        O  0.57283452  0.12939078  0.22927677    -0.90700
O556        O  0.58431472  0.16985461  0.22564753    -0.83900
C557        C  0.57798470  0.14993767  0.24299003     1.11300
O558        O  0.66386084  0.15525699  0.10624195    -0.97000
Zr559      Zr  0.63845724  0.16851703  0.13286810     1.88900
O560        O  0.63095649  0.21443231  0.18791054    -0.73600
O561        O  0.59836850  0.10740979  0.21293006    -0.52900
O562        O  0.65472435  0.15418251  0.17736773    -0.97600
O563        O  0.67356800  0.20072489  0.10034530    -0.54800
O564        O  0.65740283  0.20259846  0.17443369    -0.74100
C565        C  0.65193222  0.21690499  0.18999528     0.98200
O566        O  0.57040081  0.19959099  0.19506393    -0.63000
O567        O  0.58120449  0.18956211  0.01999961    -0.57800
O568        O  0.58826195  0.21566426  0.13696778    -0.94400
O569        O  0.59903608  0.21749505  0.08010173    -0.92900
O570        O  0.52294500  0.14568512  0.06367614    -0.93200
O571        O  0.50778025  0.13408259  0.13120996    -0.92000
C572        C  0.59283448  0.22540442  0.10638450     1.17000
H573        H  0.56202045  0.13538156  0.03955042     0.33000
H574        H  0.54552986  0.13660447  0.17792232     0.43800
H575        H  0.63391004  0.21073374  0.12080629     0.37400
H576        H  0.61312972  0.11523536  0.13435883     0.33800
H577        H  0.48998340  0.08414622  0.11347912     0.25600
H578        H  0.58603891  0.09193165  0.22497205     0.31600
H579        H  0.64884149  0.15692009  0.19970957     0.37500
H580        H  0.50821872  0.13141321  0.05319206     0.31900
H581        H  0.56842965  0.19123503  0.03128783     0.30800
H582        H  0.64727307  0.20641360  0.03366994     0.32500
H583        H  0.68712726  0.20783375  0.11714415     0.31500
H584        H  0.51662241  0.15226309  0.13500874     0.35500
H585        H  0.55552656  0.18503184  0.20503525     0.28200
H586        H  0.60131981  0.08246581  0.04986558     0.32400
H587        H  0.67911167  0.16333219  0.11976612     0.35300
H588        H  0.59354380  0.20650971  0.01176273     0.27900
H589        H  0.58077869  0.20847454  0.21534176     0.40800
H590        H  0.53407085  0.07211316  0.20015324     0.30800
H591        H  0.50784885  0.07623909  0.12527967     0.38400
H592        H  0.67038470  0.21410850  0.09665006     0.30300
H593        H  0.60779506  0.10255065  0.19842218     0.30300
H594        H  0.62255388  0.10273498  0.07279566     0.30600
Zr595      Zr  0.58686331  0.11480433  0.57597459     2.17500
O596        O  0.61279730  0.10089096  0.55393687    -0.51700
O597        O  0.55118406  0.08768437  0.54262923    -0.74900
O598        O  0.57115025  0.07312838  0.60263177    -0.81700
O599        O  0.60944562  0.16902313  0.51123770    -0.83500
O600        O  0.57076437  0.07815174  0.66126433    -0.79100
O601        O  0.59596902  0.12786015  0.51458228    -0.90700
O602        O  0.52180115  0.09528360  0.55672204    -0.76700
O603        O  0.55539156  0.10473043  0.61707181    -0.86200
O604        O  0.57038046  0.13932106  0.56155567    -0.85900
O605        O  0.60666723  0.12607347  0.63140307    -0.72600
O606        O  0.61977494  0.15774275  0.57905353    -0.84800
Zr607      Zr  0.59104102  0.18392996  0.66282934     2.26400
Zr608      Zr  0.57506632  0.11733984  0.67204325     2.06300
Zr609      Zr  0.60237694  0.18192027  0.56641409     2.10000
Zr610      Zr  0.53860316  0.12846536  0.60163782     1.78800
O611        O  0.64122714  0.21600159  0.54443630    -0.93600
O612        O  0.50287978  0.09351711  0.62934834    -0.41400
O613        O  0.57061825  0.17174738  0.60737445    -0.78000
O614        O  0.55741241  0.14099537  0.65845440    -0.96700
O615        O  0.60749936  0.15948495  0.67636550    -0.90000
O616        O  0.62209296  0.19358665  0.62105964    -0.92800
C617        C  0.52991250  0.08387620  0.53900783     1.00900
C618        C  0.60367006  0.14824243  0.49745681     1.13800
C619        C  0.56778223  0.06502134  0.63438409     1.04600
O620        O  0.53518806  0.08488019  0.69378416    -0.95000
O621        O  0.57244729  0.13190277  0.72842878    -0.90700
O622        O  0.58745725  0.17328933  0.72517166    -0.83900
C623        C  0.57980492  0.15299355  0.74240508     1.11300
O624        O  0.66527113  0.15528506  0.61663325    -0.97000
Zr625      Zr  0.63845975  0.16908219  0.63514102     1.88900
O626        O  0.63053874  0.21650135  0.68705503    -0.73600
O627        O  0.59755165  0.11046941  0.71627887    -0.52900
O628        O  0.65241086  0.15563351  0.68403070    -0.97600
O629        O  0.67359104  0.20114879  0.60261516    -0.54800
O630        O  0.65685335  0.20439916  0.67427391    -0.74100
C631        C  0.65161867  0.21915859  0.68887101     0.98200
O632        O  0.56417839  0.19484223  0.69058313    -0.63000
O633        O  0.57803082  0.18664022  0.52295672    -0.57800
O634        O  0.59487999  0.22067600  0.63515323    -0.94400
O635        O  0.60521844  0.22091087  0.57839874    -0.92900
O636        O  0.52431920  0.14422968  0.55620041    -0.93200
O637        O  0.50930082  0.13814881  0.62302663    -0.92000
C638        C  0.60068312  0.23048734  0.60448792     1.17000
H639        H  0.56395622  0.13603899  0.53823663     0.33000
H640        H  0.54519560  0.13779692  0.67567533     0.43800
H641        H  0.63446519  0.21106827  0.62069703     0.37400
H642        H  0.61327166  0.11594150  0.63637546     0.33800
H643        H  0.50223627  0.07854953  0.62054723     0.25600
H644        H  0.58519806  0.09510524  0.72852428     0.31600
H645        H  0.64732022  0.16075492  0.70507188     0.37500
H646        H  0.52812534  0.13910909  0.53396133     0.31900
H647        H  0.58984647  0.20151806  0.50933292     0.30800
H648        H  0.63707581  0.22198814  0.52347858     0.32500
H649        H  0.67664440  0.21713405  0.61168826     0.31500
H650        H  0.51876236  0.15246914  0.63878474     0.35500
H651        H  0.55389484  0.19455947  0.67147768     0.28200
H652        H  0.60155441  0.08511002  0.54177600     0.32400
H653        H  0.68085825  0.16635269  0.62866110     0.35300
H654        H  0.56837744  0.19184805  0.53617474     0.27900
H655        H  0.55286134  0.18021705  0.70501556     0.40800
H656        H  0.53204392  0.09181610  0.71475773     0.30800
H657        H  0.50728427  0.09450416  0.65415727     0.38400
H658        H  0.66749841  0.20010349  0.57874327     0.30300
H659        H  0.60769993  0.10575607  0.70334200     0.30300
H660        H  0.61788498  0.09584742  0.57491474     0.30600
Zr661      Zr  0.41736519  0.89061250  0.32841387     2.17500
O662        O  0.39047028  0.90407977  0.30955207    -0.51700
O663        O  0.45260438  0.91747830  0.29318216    -0.74900
O664        O  0.43383196  0.93221340  0.35482370    -0.81700
O665        O  0.39595830  0.83750903  0.26362964    -0.83500
O666        O  0.43441641  0.92748445  0.41346401    -0.79100
O667        O  0.40692328  0.87797118  0.26739988    -0.90700
O668        O  0.48220327  0.91014785  0.30638817    -0.76700
O669        O  0.44867466  0.90094443  0.36923204    -0.86200
O670        O  0.43446786  0.86668867  0.31314580    -0.85900
O671        O  0.39737446  0.87895599  0.38412826    -0.72600
O672        O  0.38497212  0.84749446  0.33177295    -0.84800
Zr673      Zr  0.41465177  0.82241864  0.41441328     2.26400
Zr674      Zr  0.42887970  0.88792450  0.42448635     2.06300
Zr675      Zr  0.40282367  0.82388695  0.31833296     2.10000
Zr676      Zr  0.46631794  0.87811519  0.35287360     1.78800
O677        O  0.36294209  0.79036184  0.29929802    -0.93600
O678        O  0.50142171  0.91461863  0.37844953    -0.41400
O679        O  0.43481438  0.83479227  0.35858865    -0.78000
O680        O  0.44765594  0.86539457  0.40999563    -0.96700
O681        O  0.39691282  0.84558133  0.42906774    -0.90000
O682        O  0.38311490  0.81172871  0.37357056    -0.92800
C683        C  0.47381720  0.92116609  0.28864323     1.00900
C684        C  0.39988300  0.85777988  0.25025071     1.13800
C685        C  0.43745468  0.94044348  0.38640276     1.04600
O686        O  0.46703009  0.92036255  0.44993579    -0.95000
O687        O  0.43436386  0.87510074  0.48033626    -0.90700
O688        O  0.42160892  0.83430785  0.47628094    -0.83900
C689        C  0.42889271  0.85438333  0.49376349     1.11300
O690        O  0.33780815  0.84632913  0.36509227    -0.97000
Zr691      Zr  0.36604832  0.83574893  0.38801496     1.88900
O692        O  0.37608223  0.79138429  0.44195103    -0.73600
O693        O  0.40392763  0.89293177  0.46716288    -0.52900
O694        O  0.35209786  0.85185417  0.43385085    -0.97600
O695        O  0.33044828  0.80119429  0.35993326    -0.54800
O696        O  0.34972932  0.80386811  0.43259795    -0.74100
C697        C  0.35569834  0.78973195  0.44705864     0.98200
O698        O  0.43823405  0.80757531  0.44187360    -0.63000
O699        O  0.42475335  0.81589419  0.27393104    -0.57800
O700        O  0.41296856  0.78695162  0.38605111    -0.94400
O701        O  0.40290405  0.78637986  0.32927619    -0.92900
O702        O  0.48137691  0.86140831  0.30961548    -0.93200
O703        O  0.49630723  0.87029664  0.37626967    -0.92000
C704        C  0.40800467  0.77739490  0.35531172     1.17000
H705        H  0.44080764  0.87006205  0.28966016     0.33000
H706        H  0.45994173  0.86872352  0.42691816     0.43800
H707        H  0.37109245  0.79413281  0.37390625     0.37400
H708        H  0.39058681  0.88887947  0.38922040     0.33800
H709        H  0.49909936  0.92848049  0.37353469     0.25600
H710        H  0.41560343  0.90783778  0.48067478     0.31600
H711        H  0.33734761  0.83710045  0.44371055     0.37500
H712        H  0.48336651  0.87072537  0.28794327     0.31900
H713        H  0.41248817  0.80598972  0.25594673     0.30800
H714        H  0.36625922  0.77973726  0.28449437     0.32500
H715        H  0.33095513  0.78627726  0.36531256     0.31500
H716        H  0.48658203  0.85323534  0.38589331     0.35500
H717        H  0.45310147  0.82273562  0.45039849     0.28200
H718        H  0.39932368  0.92218480  0.31391137     0.32400
H719        H  0.32293053  0.83705875  0.37962158     0.35300
H720        H  0.43587458  0.83217391  0.26270456     0.27900
H721        H  0.42901693  0.79870722  0.46316258     0.40800
H722        H  0.47598184  0.91221047  0.45552003     0.30800
H723        H  0.49892669  0.91201409  0.40389577     0.38400
H724        H  0.33408534  0.80399753  0.33469709     0.30300
H725        H  0.39453653  0.89819818  0.45364219     0.30300
H726        H  0.37706267  0.89676796  0.32687582     0.30600
Zr727      Zr  0.41579340  0.89125474  0.82728571     2.17500
O728        O  0.38896817  0.90446062  0.80737611    -0.51700
O729        O  0.45209925  0.91954743  0.79467297    -0.74900
O730        O  0.43332463  0.93251350  0.85541404    -0.81700
O731        O  0.39927938  0.84024149  0.76163775    -0.83500
O732        O  0.42215224  0.92386159  0.91207193    -0.79100
O733        O  0.41100580  0.88092610  0.76516681    -0.90700
O734        O  0.48213284  0.91403598  0.81244239    -0.76700
O735        O  0.44465628  0.90194954  0.87204479    -0.86200
O736        O  0.43543965  0.86942489  0.81490575    -0.85900
O737        O  0.39183268  0.87645507  0.87991857    -0.72600
O738        O  0.38476026  0.84737549  0.82694794    -0.84800
Zr739      Zr  0.41078966  0.82189919  0.91424441     2.26400
Zr740      Zr  0.42129812  0.88634942  0.92418591     2.06300
Zr741      Zr  0.40536360  0.82607385  0.81654710     2.10000
Zr742      Zr  0.46490185  0.88125589  0.85849549     1.78800
O743        O  0.36766585  0.78980554  0.79624584    -0.93600
O744        O  0.49735588  0.91814661  0.88745574    -0.41400
O745        O  0.43473578  0.83726275  0.86130834    -0.78000
O746        O  0.44240219  0.86572618  0.91286150    -0.96700
O747        O  0.39064312  0.84325190  0.92535150    -0.90000
O748        O  0.38203234  0.81092165  0.86875483    -0.92800
C749        C  0.47391035  0.92440707  0.79277410     1.00900
C750        C  0.40470746  0.86097059  0.74795270     1.13800
C751        C  0.43203654  0.93911598  0.88678584     1.04600
O752        O  0.46004293  0.91764309  0.94949918    -0.95000
O753        O  0.42221903  0.87112987  0.98062685    -0.90700
O754        O  0.41204824  0.83107516  0.97671102    -0.83900
C755        C  0.41729900  0.85061302  0.99419283     1.11300
O756        O  0.33426313  0.84313367  0.85583107    -0.97000
Zr757      Zr  0.36207309  0.83252105  0.88032149     1.88900
O758        O  0.37125795  0.78824652  0.93727241    -0.73600
O759        O  0.39835162  0.89315705  0.96829951    -0.52900
O760        O  0.34304758  0.84325691  0.92592697    -0.97600
O761        O  0.32955231  0.79864749  0.84657218    -0.54800
O762        O  0.34352123  0.79722855  0.91985764    -0.74100
C763        C  0.34950464  0.78393761  0.93684827     0.98200
O764        O  0.43745636  0.81195227  0.94438518    -0.63000
O765        O  0.42758657  0.82128505  0.76882516    -0.57800
O766        O  0.41139064  0.78707391  0.88776112    -0.94400
O767        O  0.41316283  0.79352693  0.82929640    -0.92900
O768        O  0.48209088  0.86560479  0.81711050    -0.93200
O769        O  0.49598470  0.87676137  0.88584312    -0.92000
C770        C  0.41389177  0.78195423  0.85615452     1.17000
H771        H  0.44316451  0.87360318  0.79229476     0.33000
H772        H  0.45370574  0.86925068  0.93146055     0.43800
H773        H  0.37086071  0.79315978  0.86765189     0.37400
H774        H  0.38375965  0.88530291  0.88392318     0.33800
H775        H  0.49473750  0.93162334  0.88117058     0.25600
H776        H  0.41008473  0.90965407  0.97835595     0.31600
H777        H  0.34954103  0.84117307  0.94799773     0.37500
H778        H  0.48068564  0.87169626  0.79410153     0.31900
H779        H  0.43633311  0.83745570  0.75649063     0.30800
H780        H  0.37293043  0.78184336  0.77928100     0.32500
H781        H  0.31520236  0.79093563  0.86227603     0.31500
H782        H  0.48696524  0.86300365  0.90273428     0.35500
H783        H  0.45015226  0.81528050  0.92698123     0.28200
H784        H  0.38268026  0.90761193  0.82900059     0.32400
H785        H  0.31828695  0.83170015  0.86697818     0.35300
H786        H  0.44072244  0.82032549  0.77999248     0.27900
H787        H  0.44624195  0.82521002  0.96190055     0.40800
H788        H  0.46290175  0.93383595  0.94180819     0.30800
H789        H  0.49326632  0.91518726  0.91254871     0.38400
H790        H  0.33388629  0.78597553  0.84460158     0.30300
H791        H  0.38667044  0.89554969  0.95528906     0.30300
H792        H  0.37478728  0.88921061  0.79763567     0.30600
C793        C  0.38255121  0.81511227  0.63791110    -0.18200
C794        C  0.38780719  0.81328523  0.60311934    -0.20400
C795        C  0.40680445  0.83398686  0.58566644     0.20200
C796        C  0.42085602  0.85671939  0.60362261    -0.03300
C797        C  0.41547912  0.85859359  0.63873297    -0.06400
C798        C  0.39618450  0.83767986  0.65583580     0.20500
C799        C  0.42951220  0.88127451  0.65677857     0.18700
C800        C  0.44894885  0.90180691  0.63957335    -0.17900
C801        C  0.45408558  0.90005463  0.60461841    -0.20100
C802        C  0.44000071  0.87765611  0.58635609     0.20200
C803        C  0.44406519  0.87606241  0.55081043    -0.33100
C804        C  0.42920394  0.85381976  0.53224831     0.00900
C805        C  0.41128011  0.83260191  0.55020939    -0.24500
C806        C  0.39134281  0.83940856  0.69091510    -0.29000
C807        C  0.40569590  0.86166105  0.70949121     0.06500
C808        C  0.42438347  0.88271234  0.69200018    -0.27700
H809        H  0.36780196  0.79883706  0.65082802     0.11300
H810        H  0.37684830  0.79571742  0.58975151     0.12400
H811        H  0.46016460  0.91922081  0.65312893     0.11500
H812        H  0.46896678  0.91628085  0.59179222     0.10700
H813        H  0.45797899  0.89252271  0.53711984     0.16100
H814        H  0.39958497  0.81553779  0.53604277     0.12000
H815        H  0.37708685  0.82300952  0.70431664     0.14900
H816        H  0.43591494  0.89966147  0.70632227     0.14600
C817        C  0.37922346  0.80869852  0.10574435    -0.18200
C818        C  0.37485128  0.81045829  0.14104290    -0.20400
C819        C  0.38786132  0.83337628  0.15838384     0.20200
C820        C  0.40551070  0.85471703  0.14008030    -0.03300
C821        C  0.40995138  0.85293112  0.10451529    -0.06400
C822        C  0.39664376  0.82983663  0.08714491     0.20500
C823        C  0.42753147  0.87433339  0.08628034     0.18700
C824        C  0.44092060  0.89714064  0.10373110    -0.17900
C825        C  0.43672373  0.89883014  0.13903159    -0.20100
C826        C  0.41893940  0.87780362  0.15738856     0.20200
C827        C  0.41506547  0.87926972  0.19304628    -0.33100
C828        C  0.39838878  0.85784525  0.21184861     0.00900
C829        C  0.38425983  0.83513052  0.19403168    -0.24500
C830        C  0.40039894  0.82851665  0.05128553    -0.29000
C831        C  0.41696557  0.85013270  0.03267584     0.06500
C832        C  0.43093915  0.87276402  0.05065481    -0.27700
H833        H  0.36884769  0.79083040  0.09293094     0.11300
H834        H  0.36135155  0.79384777  0.15483803     0.12400
H835        H  0.45457403  0.91371875  0.09002335     0.11500
H836        H  0.44741799  0.91657655  0.15198547     0.10700
H837        H  0.42628487  0.89668348  0.20661799     0.16100
H838        H  0.37142059  0.81847313  0.20839055     0.12000
H839        H  0.38944729  0.81108575  0.03755899     0.14900
H840        H  0.44390164  0.88950054  0.03653339     0.14600
C841        C  0.49395432  0.98612875  0.65753273    -0.18200
C842        C  0.48040046  0.96793877  0.68275913    -0.20400
C843        C  0.49199955  0.96391955  0.71030519     0.20200
C844        C  0.51754479  0.97776017  0.71185306    -0.03300
C845        C  0.53127916  0.99650952  0.68661214    -0.06400
C846        C  0.51937489  0.00098481  0.65967182     0.20500
C847        C  0.55672772  0.01184752  0.68972125     0.18700
C848        C  0.56833514  0.00725271  0.71669599    -0.17900
C849        C  0.55478244  0.98828408  0.74115952    -0.20100
C850        C  0.52928114  0.97373152  0.73953897     0.20200
C851        C  0.51529055  0.95583808  0.76558059    -0.33100
C852        C  0.48965672  0.94254328  0.76485816     0.00900
C853        C  0.47838044  0.94682839  0.73683560    -0.24500
C854        C  0.53278817  0.02158645  0.63735572    -0.29000
C855        C  0.55775722  0.03849761  0.64266364     0.06500
C856        C  0.56978990  0.03273421  0.66774483    -0.27700
H857        H  0.48446044  0.98924845  0.63712840     0.11300
H858        H  0.46074968  0.95731825  0.68109996     0.12400
H859        H  0.58789049  0.01880456  0.71947214     0.11500
H860        H  0.56423119  0.98553695  0.76202625     0.10700
H861        H  0.52430216  0.95291545  0.78691750     0.16100
H862        H  0.45875529  0.93700775  0.73577869     0.12000
H863        H  0.52325646  0.02623248  0.61892174     0.14900
H864        H  0.58890850  0.04598341  0.67259944     0.14600
C865        C  0.52505534  0.03708206  0.43364105    -0.18200
C866        C  0.51180705  0.01821329  0.40940072    -0.20400
C867        C  0.48634229  0.00389105  0.41100997     0.20200
C868        C  0.47409676  0.00927350  0.43660590    -0.03300
C869        C  0.48751825  0.02857665  0.46091666    -0.06400
C870        C  0.51308779  0.04221219  0.45964972     0.20500
C871        C  0.47540925  0.03356870  0.48725415     0.18700
C872        C  0.44988768  0.01936582  0.48851852    -0.17900
C873        C  0.43660188  0.99993142  0.46484902    -0.20100
C874        C  0.44854783  0.99447197  0.43917472     0.20200
C875        C  0.43562252  0.97336855  0.41786985    -0.33100
C876        C  0.44791606  0.96694335  0.39400617     0.00900
C877        C  0.47309477  0.98306666  0.38938575    -0.24500
C878        C  0.52634721  0.06032018  0.48491531    -0.29000
C879        C  0.51464388  0.06539651  0.51169286     0.06500
C880        C  0.48904682  0.05216629  0.51230659    -0.27700
H881        H  0.54472621  0.04734638  0.43247311     0.11300
H882        H  0.52152236  0.01428511  0.39009744     0.12400
H883        H  0.44019700  0.02287340  0.50838589     0.11500
H884        H  0.41697264  0.98877376  0.46716535     0.10700
H885        H  0.41630708  0.96055772  0.42225572     0.16100
H886        H  0.48272869  0.97771798  0.37199132     0.12000
H887        H  0.54601043  0.07035453  0.48386730     0.14900
H888        H  0.47979538  0.05574246  0.53281306     0.14600
C889        C  0.56347547  0.10493175  0.88754574    -0.18200
C890        C  0.55874091  0.10639952  0.85250936    -0.20400
C891        C  0.57145183  0.12921939  0.83474237     0.20200
C892        C  0.58894076  0.15082496  0.85241071    -0.03300
C893        C  0.59382422  0.14930599  0.88773616    -0.06400
C894        C  0.58106946  0.12622316  0.90533621     0.20500
C895        C  0.61125494  0.17090892  0.90551243     0.18700
C896        C  0.62368652  0.19378899  0.88788252    -0.17900
C897        C  0.61898343  0.19525385  0.85276926    -0.20100
C898        C  0.60169204  0.17388426  0.83472563     0.20200
C899        C  0.59743741  0.17501634  0.79911863    -0.33100
C900        C  0.58073064  0.15331964  0.78099471     0.00900
C901        C  0.56739916  0.13063981  0.79936101    -0.24500
C902        C  0.58546481  0.12499495  0.94072285    -0.29000
C903        C  0.60193096  0.14663948  0.95897665     0.06500
C904        C  0.61529529  0.16940608  0.94092377    -0.27700
H905        H  0.55332648  0.08715996  0.90074967     0.11300
H906        H  0.54519634  0.08964336  0.83925067     0.12400
H907        H  0.63701863  0.21058184  0.90128729     0.11500
H908        H  0.62893919  0.21309926  0.83968859     0.10700
H909        H  0.60800852  0.19247809  0.78519177     0.16100
H910        H  0.55441547  0.11375959  0.78575736     0.12000
H911        H  0.57487268  0.10753587  0.95455185     0.14900
H912        H  0.62797465  0.18622693  0.95491137     0.14600
C913        C  0.56522422  0.10413726  0.38879038    -0.18200
C914        C  0.55960077  0.10476551  0.35390752    -0.20400
C915        C  0.57081817  0.12738587  0.33566137     0.20200
C916        C  0.58772344  0.14961196  0.35272624    -0.03300
C917        C  0.59357371  0.14892577  0.38785016    -0.06400
C918        C  0.58224709  0.12606759  0.40596647     0.20500
C919        C  0.61055048  0.17112274  0.40490312     0.18700
C920        C  0.62149650  0.19379214  0.38678199    -0.17900
C921        C  0.61576590  0.19445986  0.35193139    -0.20100
C922        C  0.59900016  0.17247704  0.33460150     0.20200
C923        C  0.59404285  0.17284101  0.29915722    -0.33100
C924        C  0.57828979  0.15056940  0.28150709     0.00900
C925        C  0.56608274  0.12803809  0.30031807    -0.24500
C926        C  0.58744793  0.12563039  0.44125424    -0.29000
C927        C  0.60354817  0.14779444  0.45888141     0.06500
C928        C  0.61560603  0.17038290  0.44012935    -0.27700
H929        H  0.55621932  0.08650039  0.40235871     0.11300
H930        H  0.54656510  0.08752210  0.34114134     0.12400
H931        H  0.63444764  0.21104006  0.39960804     0.11500
H932        H  0.62458883  0.21216137  0.33845144     0.10700
H933        H  0.60366162  0.19022310  0.28485380     0.16100
H934        H  0.55375630  0.11075797  0.28700186     0.12000
H935        H  0.57779010  0.10824404  0.45547713     0.14900
H936        H  0.62800260  0.18764172  0.45343344     0.14600
C937        C  0.47805217  0.96647882  0.18188740    -0.18200
C938        C  0.49124905  0.98512619  0.15709498    -0.20400
C939        C  0.51674126  0.99936664  0.15784794     0.20200
C940        C  0.52903996  0.99385375  0.18285641    -0.03300
C941        C  0.51566129  0.97464740  0.20759282    -0.06400
C942        C  0.49008345  0.96139371  0.20753737     0.20500
C943        C  0.52784751  0.96960899  0.23342887     0.18700
C944        C  0.55337234  0.98355140  0.23368870    -0.17900
C945        C  0.56660085  0.00299217  0.20978337    -0.20100
C946        C  0.55460145  0.00862583  0.18469797     0.20200
C947        C  0.56747868  0.02994661  0.16345870    -0.33100
C948        C  0.55516194  0.03658545  0.14019250     0.00900
C949        C  0.52994994  0.02034486  0.13615751    -0.24500
C950        C  0.47692611  0.94390466  0.23381232    -0.29000
C951        C  0.48875883  0.93892307  0.26019262     0.06500
C952        C  0.51431349  0.95145587  0.25925292    -0.27700
H953        H  0.45837976  0.95643278  0.18151632     0.11300
H954        H  0.48147143  0.98909073  0.13820392     0.12400
H955        H  0.56311638  0.97999343  0.25316508     0.11500
H956        H  0.58623679  0.01408591  0.21155899     0.10700
H957        H  0.58679166  0.04273499  0.16748653     0.16100
H958        H  0.52023720  0.02574030  0.11927543     0.12000
H959        H  0.45728880  0.93437586  0.23394475     0.14900
H960        H  0.52366536  0.94785614  0.27934165     0.14600
C961        C  0.44798277  0.02095917  0.98827289    -0.18200
C962        C  0.43437643  0.00089930  0.96565867    -0.20400
C963        C  0.44595774  0.99456609  0.94054456     0.20200
C964        C  0.47148690  0.00907823  0.93746295    -0.03300
C965        C  0.48524532  0.02920905  0.96054658    -0.06400
C966        C  0.47348405  0.03503357  0.98641529     0.20500
C967        C  0.51079957  0.04272790  0.95876785     0.18700
C968        C  0.52241315  0.03665607  0.93337232    -0.17900
C969        C  0.50883452  0.01681819  0.91053555    -0.20100
C970        C  0.48335929  0.00262410  0.91266748     0.20200
C971        C  0.46969580  0.98114480  0.89215336    -0.33100
C972        C  0.44437714  0.96567079  0.89674676     0.00900
C973        C  0.43260645  0.97302824  0.92016045    -0.24500
C974        C  0.48743177  0.05407767  0.01078518    -0.29000
C975        C  0.51301140  0.06691027  0.01007066     0.06500
C976        C  0.52438026  0.06135929  0.98333611    -0.27700
H977        H  0.43855313  0.02504106  0.00785503     0.11300
H978        H  0.41476961  0.98992220  0.96841722     0.12400
H979        H  0.54207249  0.04686287  0.93175244     0.11500
H980        H  0.51830942  0.01213915  0.89184612     0.10700
H981        H  0.47899757  0.97517900  0.87515530     0.16100
H982        H  0.41318969  0.96087079  0.92444402     0.12000
H983        H  0.47841093  0.05805127  0.03118553     0.14900
H984        H  0.54400987  0.07104498  0.98226401     0.14600
C985        C  0.73281711  0.25850092  0.74207842    -0.18200
C986        C  0.75212349  0.27765080  0.76070726    -0.20400
C987        C  0.75120070  0.29805367  0.77219923     0.20200
C988        C  0.73086826  0.29949630  0.76417918    -0.03300
C989        C  0.71124935  0.28003109  0.74532546    -0.06400
C990        C  0.71223581  0.25940889  0.73456764     0.20500
C991        C  0.69063449  0.28107908  0.73752882     0.18700
C992        C  0.69014568  0.30194406  0.74827787    -0.17900
C993        C  0.70962096  0.32127478  0.76693956    -0.20100
C994        C  0.73004777  0.32019753  0.77528829     0.20200
C995        C  0.74949928  0.33917433  0.79485325    -0.33100
C996        C  0.76950654  0.33736787  0.80384771     0.00900
C997        C  0.77017793  0.31681455  0.79196000    -0.24500
C998        C  0.69264927  0.23991981  0.71657949    -0.29000
C999        C  0.67175323  0.24040952  0.70875286     0.06500
C1000       C  0.67095373  0.26123790  0.71930827    -0.27700
H1001       H  0.73391134  0.24284892  0.73376007     0.11300
H1002       H  0.76770711  0.27637909  0.76642359     0.12400
H1003       H  0.67460406  0.30325377  0.74244778     0.11500
H1004       H  0.70860477  0.33700016  0.77508950     0.10700
H1005       H  0.74878178  0.35493166  0.80379289     0.16100
H1006       H  0.78561133  0.31537049  0.79815768     0.12000
H1007       H  0.69372719  0.22414915  0.70883217     0.14900
H1008       H  0.65518005  0.26208464  0.71321282     0.14600
C1009       C  0.71280790  0.32127238  0.26136463    -0.18200
C1010       C  0.69307333  0.30175346  0.24330134    -0.20400
C1011       C  0.69165040  0.27919646  0.23734413     0.20200
C1012       C  0.71031674  0.27635016  0.25010097    -0.03300
C1013       C  0.73012451  0.29597237  0.26857407    -0.06400
C1014       C  0.73155132  0.31867405  0.27408116     0.20500
C1015       C  0.74858396  0.29286155  0.28130075     0.18700
C1016       C  0.74720864  0.27035571  0.27566572    -0.17900
C1017       C  0.72783035  0.25112558  0.25718497    -0.20100
C1018       C  0.70935546  0.25395804  0.24415945     0.20200
C1019       C  0.69012894  0.23483322  0.22498971    -0.33100
C1020       C  0.67142583  0.23738078  0.21170291     0.00900
C1021       C  0.67216014  0.25959628  0.21853225    -0.24500
C1022       C  0.75164726  0.33824108  0.29211736    -0.29000
C1023       C  0.77017718  0.33517811  0.30502043     0.06500
C1024       C  0.76822585  0.31225857  0.29934595    -0.27700
H1025       H  0.71341942  0.33845268  0.26532146     0.11300
H1026       H  0.67898034  0.30438983  0.23374762     0.12400
H1027       H  0.76125015  0.26767572  0.28536008     0.11500
H1028       H  0.72735198  0.23403514  0.25295465     0.10700
H1029       H  0.68975181  0.21781917  0.22038643     0.16100
H1030       H  0.65796427  0.26188890  0.20844710     0.12000
H1031       H  0.75271061  0.35562973  0.29637891     0.14900
H1032       H  0.78220901  0.30940866  0.30882735     0.14600
C1033       C  0.90326231  0.44378430  0.66228652    -0.18200
C1034       C  0.90406214  0.43806187  0.62739557    -0.20400
C1035       C  0.88255202  0.42173801  0.60957007     0.20200
C1036       C  0.85996362  0.41116918  0.62704481    -0.03300
C1037       C  0.85913687  0.41688413  0.66224342    -0.06400
C1038       C  0.88092253  0.43314831  0.67991791     0.20500
C1039       C  0.83657970  0.40586715  0.67994575     0.18700
C1040       C  0.81505159  0.38963148  0.66208126    -0.17900
C1041       C  0.81584870  0.38426369  0.62700137    -0.20100
C1042       C  0.83819903  0.39487675  0.60937147     0.20200
C1043       C  0.83910254  0.39002428  0.57409922    -0.33100
C1044       C  0.86145666  0.40133108  0.55609125     0.00900
C1045       C  0.88316880  0.41644785  0.57429168    -0.24500
C1046       C  0.88009160  0.43756285  0.71534644    -0.29000
C1047       C  0.85784603  0.42546376  0.73360153     0.06500
C1048       C  0.83606171  0.41037952  0.71555522    -0.27700
H1049       H  0.92014383  0.45626204  0.67561710     0.11300
H1050       H  0.92148917  0.44642858  0.61434413     0.12400
H1051       H  0.79761767  0.38093655  0.67530688     0.11500
H1052       H  0.79898235  0.37174210  0.61367487     0.10700
H1053       H  0.82225599  0.37832557  0.56020170     0.16100
H1054       H  0.90039117  0.42540807  0.56051843     0.12000
H1055       H  0.89694078  0.44936637  0.72919395     0.14900
H1056       H  0.81890702  0.40084106  0.72962339     0.14600
C1057       C  0.81457086  0.38967415  0.12659188    -0.18200
C1058       C  0.81455353  0.39414804  0.16222963    -0.20400
C1059       C  0.83647672  0.40675274  0.18061944     0.20200
C1060       C  0.85857107  0.41456464  0.16299987    -0.03300
C1061       C  0.85856434  0.40982779  0.12723230    -0.06400
C1062       C  0.83649776  0.39761764  0.10890965     0.20500
C1063       C  0.88070728  0.41773822  0.10970803     0.18700
C1064       C  0.90251797  0.42980220  0.12823395    -0.17900
C1065       C  0.90257654  0.43463158  0.16362426    -0.20100
C1066       C  0.88073282  0.42720565  0.18106779     0.20200
C1067       C  0.88070640  0.43178658  0.21648479    -0.33100
C1068       C  0.85878468  0.42342301  0.23460324     0.00900
C1069       C  0.83671179  0.41127249  0.21640770    -0.24500
C1070       C  0.83686734  0.39444356  0.07298247    -0.29000
C1071       C  0.85904194  0.40358590  0.05505854     0.06500
C1072       C  0.88078621  0.41435058  0.07374767    -0.27700
H1073       H  0.79746612  0.38022825  0.11278423     0.11300
H1074       H  0.79742568  0.38788520  0.17535308     0.12400
H1075       H  0.91953110  0.43563033  0.11533186     0.11500
H1076       H  0.91970972  0.44414693  0.17736550     0.10700
H1077       H  0.89786717  0.44121402  0.23019362     0.16100
H1078       H  0.81971785  0.40450620  0.23024644     0.12000
H1079       H  0.81995008  0.38589656  0.05871401     0.14900
H1080       H  0.89790853  0.42152776  0.06008933     0.14600
C1081       C  0.31489663  0.70539156  0.49977358    -0.18200
C1082       C  0.29524873  0.68599929  0.51827816    -0.20400
C1083       C  0.27729026  0.68920586  0.53303151     0.20200
C1084       C  0.27948148  0.71240834  0.52954107    -0.03300
C1085       C  0.29934516  0.73199675  0.51103118    -0.06400
C1086       C  0.31704827  0.72842298  0.49576995     0.20500
C1087       C  0.30114551  0.75496384  0.50712968     0.18700
C1088       C  0.28345118  0.75837822  0.52220866    -0.17900
C1089       C  0.26379552  0.73900618  0.54038454    -0.20100
C1090       C  0.26157484  0.71593999  0.54395076     0.20200
C1091       C  0.24154417  0.69630566  0.56132787    -0.33100
C1092       C  0.23886507  0.67290270  0.56475265     0.00900
C1093       C  0.25702877  0.66958978  0.55072366    -0.24500
C1094       C  0.33614169  0.74768359  0.47600845    -0.29000
C1095       C  0.33744955  0.77027807  0.47093554     0.06500
C1096       C  0.32016755  0.77389530  0.48732925    -0.27700
H1097       H  0.32827636  0.70226803  0.48823533     0.11300
H1098       H  0.29394700  0.66836951  0.52067754     0.12400
H1099       H  0.28460361  0.77592106  0.51947069     0.11500
H1100       H  0.25018090  0.74199437  0.55137488     0.10700
H1101       H  0.22782966  0.69930554  0.57189731     0.16100
H1102       H  0.25535463  0.65178770  0.55336586     0.12000
H1103       H  0.34937894  0.74474396  0.46349068     0.14900
H1104       H  0.32122076  0.79136800  0.48405614     0.14600
C1105       C  0.01988601  0.44575097  0.78306783    -0.18200
C1106       C  0.00067277  0.43219107  0.80674928    -0.20400
C1107       C  0.99437500  0.44443831  0.83098261     0.20200
C1108       C  0.00845324  0.47059627  0.83262681    -0.03300
C1109       C  0.02755705  0.48429166  0.80825194    -0.06400
C1110       C  0.03301401  0.47184823  0.78281529     0.20500
C1111       C  0.04029313  0.51041694  0.80820311     0.18700
C1112       C  0.03500257  0.52271680  0.83373186    -0.17900
C1113       C  0.01627947  0.50920480  0.85797689    -0.20100
C1114       C  0.00240525  0.48313574  0.85703954     0.20200
C1115       C  0.98145344  0.46954788  0.87803326    -0.33100
C1116       C  0.96592716  0.44370176  0.87392917     0.00900
C1117       C  0.97316348  0.43117044  0.85155347    -0.24500
C1118       C  0.05076281  0.48566178  0.75685461    -0.29000
C1119       C  0.06259644  0.51175302  0.75547494     0.06500
C1120       C  0.05740366  0.52382732  0.78183635    -0.27700
H1121       H  0.02388438  0.43578632  0.76409501     0.11300
H1122       H  0.99021148  0.41208649  0.80533081     0.12400
H1123       H  0.04489852  0.54283582  0.83432034     0.11500
H1124       H  0.01202942  0.51918089  0.87658285     0.10700
H1125       H  0.97572236  0.47939896  0.89447670     0.16100
H1126       H  0.96108293  0.41131078  0.84783395     0.12000
H1127       H  0.05459478  0.47607729  0.73700743     0.14900
H1128       H  0.06631249  0.54386684  0.78148783     0.14600
C1129       C  0.00406105  0.56688065  0.55837256    -0.18200
C1130       C  0.98517092  0.55371486  0.53451021    -0.20400
C1131       C  0.97175983  0.52762233  0.53407955     0.20200
C1132       C  0.97674808  0.51474537  0.55920275    -0.03300
C1133       C  0.99558266  0.52803383  0.58364123    -0.06400
C1134       C  0.00977980  0.55422236  0.58249123     0.20500
C1135       C  0.00128364  0.51507645  0.60758659     0.18700
C1136       C  0.98743516  0.48900345  0.60789466    -0.17900
C1137       C  0.96895611  0.47589003  0.58358660    -0.20100
C1138       C  0.96381832  0.48859764  0.55876311     0.20200
C1139       C  0.94668166  0.47557572  0.53266092    -0.33100
C1140       C  0.94200060  0.48812509  0.50669273     0.00900
C1141       C  0.95418264  0.51422208  0.50820533    -0.24500
C1142       C  0.03062544  0.56713935  0.60335703    -0.29000
C1143       C  0.03745558  0.55420708  0.62525936     0.06500
C1144       C  0.02197946  0.52830446  0.62863298    -0.27700
H1145       H  0.01472132  0.58699779  0.55720794     0.11300
H1146       H  0.98159022  0.56397320  0.51562390     0.12400
H1147       H  0.99152446  0.47873426  0.62604178     0.11500
H1148       H  0.95915341  0.45577109  0.58354612     0.10700
H1149       H  0.93736836  0.45550417  0.53215578     0.16100
H1150       H  0.95072085  0.52412411  0.48853808     0.12000
H1151       H  0.04287109  0.58702878  0.60000162     0.14900
H1152       H  0.02759275  0.51820824  0.64458112     0.14600
C1153       C  0.31708937  0.70755400  0.01059561    -0.18200
C1154       C  0.29787595  0.68781814  0.02937781    -0.20400
C1155       C  0.27509227  0.68529773  0.03165835     0.20200
C1156       C  0.27176404  0.70294591  0.01474955    -0.03300
C1157       C  0.29107162  0.72270517  0.99553702    -0.06400
C1158       C  0.31392419  0.72514621  0.99351216     0.20500
C1159       C  0.28745685  0.74003493  0.97841118     0.18700
C1160       C  0.26477926  0.73767100  0.98072778    -0.17900
C1161       C  0.24582813  0.71835914  0.99999329    -0.20100
C1162       C  0.24913269  0.70092557  0.01704411     0.20200
C1163       C  0.23013954  0.68156658  0.03636197    -0.33100
C1164       C  0.23307274  0.66374050  0.05322572     0.00900
C1165       C  0.25562536  0.66561012  0.05058309    -0.24500
C1166       C  0.33311495  0.74510141  0.97451255    -0.29000
C1167       C  0.32960901  0.76249309  0.95716096     0.06500
C1168       C  0.30654062  0.75954467  0.95933682    -0.27700
H1169       H  0.33444775  0.70902630  0.00938822     0.11300
H1170       H  0.30087333  0.67454357  0.04220848     0.12400
H1171       H  0.26171728  0.75085082  0.96773431     0.11500
H1172       H  0.22853866  0.71703348  0.00150251     0.10700
H1173       H  0.21285136  0.68025960  0.03805368     0.16100
H1174       H  0.25815880  0.65212991  0.06380208     0.12000
H1175       H  0.35066974  0.74700795  0.97314956     0.14900
H1176       H  0.30334701  0.77264467  0.94636619     0.14600
C1177       C  0.03878963  0.51633124  0.33753947    -0.18200
C1178       C  0.02045886  0.50307370  0.36233954    -0.20400
C1179       C  0.00494710  0.47719577  0.35978490     0.20200
C1180       C  0.00870760  0.46444266  0.33279567    -0.03300
C1181       C  0.02742743  0.47786429  0.30784362    -0.06400
C1182       C  0.04215988  0.50395036  0.30994715     0.20500
C1183       C  0.03056818  0.46534965  0.27984791     0.18700
C1184       C  0.01528445  0.43936229  0.27776827    -0.17900
C1185       C  0.99650575  0.42610910  0.30216797    -0.20100
C1186       C  0.99274501  0.43853880  0.32932815     0.20200
C1187       C  0.97211832  0.42595652  0.35108166    -0.33100
C1188       C  0.96713068  0.43900186  0.37594226     0.00900
C1189       C  0.98446659  0.46425673  0.38169170    -0.24500
C1190       C  0.05938456  0.51737111  0.28373734    -0.29000
C1191       C  0.06245553  0.50531169  0.25518762     0.06500
C1192       C  0.04830065  0.47912968  0.25387377    -0.27700
H1193       H  0.04985561  0.53640202  0.33933732     0.11300
H1194       H  0.01779484  0.51319673  0.38272083     0.12400
H1195       H  0.01736932  0.42934335  0.25663463     0.11500
H1196       H  0.98443010  0.40619887  0.29913513     0.10700
H1197       H  0.95850744  0.40659419  0.34604266     0.16100
H1198       H  0.98037170  0.47452638  0.40003814     0.12000
H1199       H  0.07018753  0.53745548  0.28527731     0.14900
H1200       H  0.05039461  0.46960001  0.23205058     0.14600
C1201       C  0.10220092  0.54968815  0.87660893    -0.18200
C1202       C  0.10436905  0.54448545  0.91125704    -0.20400
C1203       C  0.12559813  0.56048194  0.92998147     0.20200
C1204       C  0.14497202  0.58175229  0.91358773    -0.03300
C1205       C  0.14272071  0.58709138  0.87873109    -0.06400
C1206       C  0.12120762  0.57100499  0.86018569     0.20500
C1207       C  0.16215310  0.60830059  0.86228196     0.18700
C1208       C  0.18354143  0.62404005  0.88079218    -0.17900
C1209       C  0.18567404  0.61888610  0.91546505    -0.20100
C1210       C  0.16649876  0.59783540  0.93211758     0.20200
C1211       C  0.16812870  0.59307997  0.96730260    -0.33100
C1212       C  0.14834221  0.57270616  0.98427530     0.00900
C1213       C  0.12745197  0.55607007  0.96516257    -0.24500
C1214       C  0.11953628  0.57594749  0.82511821    -0.29000
C1215       C  0.13926198  0.59639246  0.80824899     0.06500
C1216       C  0.16025480  0.61282914  0.82718387    -0.27700
H1217       H  0.08568914  0.53700967  0.86263313     0.11300
H1218       H  0.08936872  0.52803024  0.92349088     0.12400
H1219       H  0.19866410  0.64030917  0.86840510     0.11500
H1220       H  0.20229564  0.63142481  0.92930530     0.10700
H1221       H  0.18412483  0.60613393  0.98201398     0.16100
H1222       H  0.11215083  0.54029411  0.97816290     0.12000
H1223       H  0.10374599  0.56282029  0.81025638     0.14900
H1224       H  0.17564781  0.62837740  0.81396709     0.14600
C1225       C  0.10734822  0.55566992  0.41423603    -0.18200
C1226       C  0.10517267  0.55970301  0.37910094    -0.20400
C1227       C  0.12525842  0.57826132  0.36035231     0.20200
C1228       C  0.14788802  0.59278596  0.37718407    -0.03300
C1229       C  0.15007814  0.58880679  0.41279546    -0.06400
C1230       C  0.12964761  0.57021497  0.43130243     0.20500
C1231       C  0.17258073  0.60352548  0.42992598     0.18700
C1232       C  0.19283464  0.62169082  0.41084989    -0.17900
C1233       C  0.19078496  0.62527901  0.37534376    -0.20100
C1234       C  0.16836189  0.61102391  0.35835642     0.20200
C1235       C  0.16621609  0.61404834  0.32263738    -0.33100
C1236       C  0.14384815  0.59907424  0.30541144     0.00900
C1237       C  0.12330211  0.58180784  0.32476569    -0.24500
C1238       C  0.13157687  0.56697207  0.46685738    -0.29000
C1239       C  0.15345125  0.58243813  0.48476955     0.06500
C1240       C  0.17415480  0.60027332  0.46594804    -0.27700
H1241       H  0.09150082  0.54127773  0.42816049     0.11300
H1242       H  0.08781417  0.54815155  0.36652325     0.12400
H1243       H  0.21026919  0.63314416  0.42339152     0.11500
H1244       H  0.20675196  0.63925104  0.36116697     0.10700
H1245       H  0.18225223  0.62727485  0.30784078     0.16100
H1246       H  0.10621519  0.56987526  0.31164856     0.12000
H1247       H  0.11557691  0.55308303  0.48111748     0.14900
H1248       H  0.19099328  0.61244552  0.47958346     0.14600
C1249       C  0.99004435  0.55688859  0.02787489    -0.18200
C1250       C  0.00877576  0.56919844  0.05228998    -0.20400
C1251       C  0.01205306  0.55581513  0.07840724     0.20200
C1252       C  0.99555991  0.52993961  0.08095486    -0.03300
C1253       C  0.97706399  0.51745880  0.05577813    -0.07600
C1254       C  0.97445890  0.53089418  0.02870671     0.20500
C1255       C  0.96207951  0.49137959  0.05664660     0.18700
C1256       C  0.96489496  0.47805378  0.08323473    -0.17900
C1257       C  0.98271123  0.49038532  0.10859519    -0.20100
C1258       C  0.99860536  0.51625222  0.10714732     0.20200
C1259       C  0.01887935  0.52822953  0.12915675    -0.33100
C1260       C  0.03681246  0.55341427  0.12416411     0.00900
C1261       C  0.03265197  0.56738718  0.09998580    -0.24500
C1262       C  0.95702884  0.51800235  0.00232491    -0.29000
C1263       C  0.94267031  0.49180630  0.00237966     0.06500
C1264       C  0.94514317  0.47886748  0.03020724    -0.27700
H1265       H  0.98832073  0.56763205  0.00757163     0.11300
H1266       H  0.02117907  0.58912892  0.05006939     0.12400
H1267       H  0.95394806  0.45797151  0.08358654     0.11500
H1268       H  0.98485962  0.47954253  0.12828084     0.10700
H1269       H  0.02234075  0.51726510  0.14695242     0.16100
H1270       H  0.04673607  0.58669369  0.09545362     0.12000
H1271       H  0.95533177  0.52823210  0.98120548     0.14900
H1272       H  0.93404402  0.45875004  0.03114379     0.14600
C1273       C  0.39383777  0.69503943  0.86863630    -0.18200
C1274       C  0.39669661  0.67576454  0.85722922    -0.20400
C1275       C  0.41434685  0.68021866  0.83202992     0.20200
C1276       C  0.42973475  0.70460245  0.81904865    -0.03300
C1277       C  0.42670780  0.72400139  0.83030380    -0.06400
C1278       C  0.40848914  0.71917413  0.85497952     0.20500
C1279       C  0.44149789  0.74807240  0.81610255     0.18700
C1280       C  0.45978135  0.75284051  0.79196228    -0.17900
C1281       C  0.46292850  0.73375385  0.78113075    -0.20100
C1282       C  0.44775788  0.70952497  0.79409442     0.20200
C1283       C  0.44997902  0.69008361  0.78179944    -0.33100
C1284       C  0.43420946  0.66543634  0.79348239     0.00900
C1285       C  0.41655083  0.66071769  0.81900991    -0.24500
C1286       C  0.40487713  0.73838861  0.86476954    -0.29000
C1287       C  0.41889548  0.76211158  0.84943096     0.06500
C1288       C  0.43735552  0.76681289  0.82552298    -0.27700
H1289       H  0.37983115  0.69094460  0.88770583     0.11300
H1290       H  0.38483844  0.65726159  0.86778551     0.12400
H1291       H  0.47141942  0.77126935  0.78103054     0.11500
H1292       H  0.47694846  0.73785202  0.76206735     0.10700
H1293       H  0.46363043  0.69414093  0.76209875     0.16100
H1294       H  0.40443391  0.64192755  0.82847178     0.12000
H1295       H  0.39057463  0.73464988  0.88311173     0.14900
H1296       H  0.44836802  0.78512926  0.81390978     0.14600
C1297       C  0.28407942  0.59714342  0.74300852    -0.18200
C1298       C  0.30468654  0.59595041  0.74870961    -0.20400
C1299       C  0.31610283  0.59166968  0.72090117     0.20200
C1300       C  0.30661760  0.58862449  0.68701681    -0.03300
C1301       C  0.28585101  0.58987151  0.68125428    -0.06400
C1302       C  0.27450431  0.59410453  0.70938246     0.20500
C1303       C  0.27640204  0.58675702  0.64734528     0.18700
C1304       C  0.28782864  0.58254290  0.61953683    -0.17900
C1305       C  0.30832957  0.58127333  0.62523302    -0.20100
C1306       C  0.31782273  0.58426127  0.65882768     0.20200
C1307       C  0.33838130  0.58303175  0.66457188    -0.33100
C1308       C  0.34818730  0.58622549  0.69814406     0.00900
C1309       C  0.33682296  0.59043510  0.72628605    -0.24500
C1310       C  0.25372648  0.59507666  0.70341534    -0.29000
C1311       C  0.24400835  0.59182027  0.66962508     0.06500
C1312       C  0.25562347  0.58774418  0.64177108    -0.27700
H1313       H  0.27559115  0.60039662  0.76494970     0.11300
H1314       H  0.31167055  0.59833878  0.77490066     0.12400
H1315       H  0.28085706  0.58014634  0.59334231     0.11500
H1316       H  0.31677566  0.57794568  0.60330786     0.10700
H1317       H  0.34677658  0.57958298  0.64268200     0.16100
H1318       H  0.34423870  0.59304603  0.75224026     0.12000
H1319       H  0.24509243  0.59828757  0.72521523     0.14900
H1320       H  0.24842498  0.58516795  0.61568384     0.14600
C1321       C  0.37856362  0.67571754  0.28980552    -0.18200
C1322       C  0.37554517  0.69506900  0.30007498    -0.20400
C1323       C  0.39353270  0.71515142  0.31955851     0.20200
C1324       C  0.41459308  0.71549115  0.32923915    -0.03300
C1325       C  0.41789419  0.69625088  0.31818966    -0.06400
C1326       C  0.39978514  0.67624591  0.29840152     0.20500
C1327       C  0.43954914  0.69732477  0.32637623     0.18700
C1328       C  0.45725180  0.71704721  0.34656066    -0.17900
C1329       C  0.45373965  0.73576469  0.35816595    -0.20100
C1330       C  0.43263357  0.73533867  0.34932866     0.20200
C1331       C  0.42958808  0.75475347  0.35943989    -0.33100
C1332       C  0.40917689  0.75509863  0.34869063     0.00900
C1333       C  0.39114479  0.73516630  0.32886947    -0.24500
C1334       C  0.40349618  0.65747379  0.28696028    -0.29000
C1335       C  0.42545001  0.65894860  0.29402832     0.06500
C1336       C  0.44333389  0.67891734  0.31378069    -0.27700
H1337       H  0.36446027  0.66053097  0.27463084     0.11300
H1338       H  0.35919076  0.69440448  0.29256905     0.12400
H1339       H  0.47391014  0.71807139  0.35324164     0.11500
H1340       H  0.46776431  0.75084132  0.37356148     0.10700
H1341       H  0.44367377  0.77024097  0.37425083     0.16100
H1342       H  0.37538705  0.73538904  0.32049091     0.12000
H1343       H  0.38978335  0.64230139  0.27128857     0.14900
H1344       H  0.46025974  0.68013189  0.31924781     0.14600
C1345       C  0.29946326  0.58430489  0.24257211    -0.18200
C1346       C  0.27903618  0.58579058  0.23719747    -0.20400
C1347       C  0.27267132  0.58862131  0.20347159     0.20200
C1348       C  0.28708892  0.59010846  0.17487964    -0.03300
C1349       C  0.30774179  0.58864647  0.18031845    -0.06400
C1350       C  0.31392194  0.58568163  0.21432602     0.20500
C1351       C  0.32214251  0.59009224  0.15173151     0.18700
C1352       C  0.31585191  0.59306706  0.11802148    -0.17900
C1353       C  0.29536204  0.59445060  0.11262748    -0.20100
C1354       C  0.28078265  0.59286050  0.14084274     0.20200
C1355       C  0.25984138  0.59361076  0.13556559    -0.33100
C1356       C  0.24509302  0.59169385  0.16390646     0.00900
C1357       C  0.25193325  0.58960127  0.19784237    -0.24500
C1358       C  0.33449734  0.58427768  0.21953905    -0.29000
C1359       C  0.34911613  0.58588934  0.19119641     0.06500
C1360       C  0.34264709  0.58867138  0.15732479    -0.27700
H1361       H  0.30394297  0.58205674  0.26885206     0.11300
H1362       H  0.26812894  0.58459299  0.25943812     0.12400
H1363       H  0.32676286  0.59427143  0.09578211     0.11500
H1364       H  0.29084419  0.59663251  0.08633855     0.10700
H1365       H  0.25492810  0.59546066  0.10935590     0.16100
H1366       H  0.24078712  0.58811162  0.21995126     0.12000
H1367       H  0.33925831  0.58222770  0.24574885     0.14900
H1368       H  0.35365099  0.58989636  0.13518258     0.14600
C1369       C  0.43318109  0.61899836  0.94722599    -0.18200
C1370       C  0.44002754  0.62437649  0.98220203    -0.20400
C1371       C  0.45014818  0.61260400  0.99958763     0.20200
C1372       C  0.45339771  0.59526786  0.98160294    -0.03300
C1373       C  0.44604037  0.58947636  0.94660431    -0.06400
C1374       C  0.43605758  0.60152720  0.92915577     0.20500
C1375       C  0.44870522  0.57159735  0.92910167     0.18700
C1376       C  0.45855585  0.55963172  0.94648108    -0.17900
C1377       C  0.46592478  0.56544990  0.98102840    -0.20100
C1378       C  0.46345420  0.58321809  0.99882170     0.20200
C1379       C  0.46961667  0.58806632  0.03406800    -0.33100
C1380       C  0.46486478  0.60395190  0.05280298     0.00900
C1381       C  0.45593904  0.61686695  0.03507167    -0.24500
C1382       C  0.42981959  0.59635907  0.89376830    -0.29000
C1383       C  0.43356109  0.57934575  0.87590365     0.06500
C1384       C  0.44215810  0.56644802  0.89418002    -0.27700
H1385       H  0.42556379  0.62844081  0.93435185     0.11300
H1386       H  0.43727805  0.63764795  0.99572043     0.12400
H1387       H  0.46066194  0.54582462  0.93329021     0.11500
H1388       H  0.47325325  0.55579876  0.99398594     0.10700
H1389       H  0.47601968  0.57774454  0.04762240     0.16100
H1390       H  0.45204982  0.62904362  0.04945302     0.12000
H1391       H  0.42338844  0.60651185  0.87975940     0.14900
H1392       H  0.44488648  0.55314595  0.88064297     0.14600
C1393       C  0.44608502  0.54522672  0.44468103    -0.18200
C1394       C  0.45222597  0.54958294  0.47992006    -0.20400
C1395       C  0.45144761  0.56838201  0.49783038     0.20200
C1396       C  0.44422594  0.58280544  0.48005711    -0.03300
C1397       C  0.43786295  0.57829949  0.44457371    -0.06400
C1398       C  0.43897314  0.55953678  0.42680762     0.20500
C1399       C  0.43070149  0.59278435  0.42679110     0.18700
C1400       C  0.42982393  0.61149596  0.44475034    -0.17900
C1401       C  0.43592107  0.61581326  0.47998574    -0.20100
C1402       C  0.44310058  0.60156624  0.49781867     0.20200
C1403       C  0.44839976  0.60522862  0.53338008    -0.33100
C1404       C  0.45479070  0.59039423  0.55156581     0.00900
C1405       C  0.45691932  0.57245251  0.53344722    -0.24500
C1406       C  0.43380343  0.55602229  0.39118912    -0.29000
C1407       C  0.42770313  0.57111022  0.37294811     0.06500
C1408       C  0.42542516  0.58892469  0.39110361    -0.27700
H1409       H  0.44702331  0.53074180  0.43134807     0.11300
H1410       H  0.45749258  0.53818675  0.49318671     0.12400
H1411       H  0.42449857  0.62286214  0.43150774     0.11500
H1412       H  0.43494771  0.63026803  0.49333960     0.10700
H1413       H  0.44654931  0.61896080  0.54734807     0.16100
H1414       H  0.46124165  0.56060535  0.54749167     0.12000
H1415       H  0.43563341  0.54228147  0.37720482     0.14900
H1416       H  0.42115400  0.60086204  0.37703366     0.14600
C1417       C  0.54259375  0.26233138  0.10086962    -0.18200
C1418       C  0.53933761  0.28124037  0.08931093    -0.20400
C1419       C  0.55862331  0.30286004  0.07374839     0.20200
C1420       C  0.58155400  0.30561222  0.07041536    -0.03300
C1421       C  0.58469559  0.28627504  0.08135073    -0.06400
C1422       C  0.56511082  0.26451016  0.09665424     0.20500
C1423       C  0.60727535  0.28849570  0.07618661     0.18700
C1424       C  0.62674054  0.31035815  0.06151014    -0.17900
C1425       C  0.62380056  0.32973015  0.05149196    -0.20100
C1426       C  0.60120763  0.32741973  0.05536949     0.20200
C1427       C  0.59774675  0.34618368  0.04343572    -0.33100
C1428       C  0.57464208  0.34307991  0.04501016     0.00900
C1429       C  0.55523978  0.32145761  0.06065317    -0.24500
C1430       C  0.56826178  0.24512154  0.10662597    -0.29000
C1431       C  0.59047469  0.24693658  0.10031323     0.06500
C1432       C  0.60986550  0.26864761  0.08513431    -0.27700
H1433       H  0.52734878  0.24578476  0.11253924     0.11300
H1434       H  0.52164021  0.27884888  0.09227492     0.12400
H1435       H  0.64422800  0.31241618  0.05755628     0.11500
H1436       H  0.63909133  0.34633359  0.04000721     0.10700
H1437       H  0.61277817  0.36267739  0.03127119     0.16100
H1438       H  0.53744370  0.31899645  0.06225294     0.12000
H1439       H  0.55317017  0.22819741  0.11782843     0.14900
H1440       H  0.62693989  0.26997203  0.08012717     0.14600
C1441       C  0.72355596  0.41318673  0.98454439    -0.18200
C1442       C  0.70254518  0.41361213  0.99040405    -0.20400
C1443       C  0.68951968  0.41480544  0.96233915     0.20200
C1444       C  0.69758668  0.41516649  0.92798011    -0.03300
C1445       C  0.71881894  0.41471288  0.92204889    -0.06400
C1446       C  0.73190447  0.41390271  0.95050974     0.20500
C1447       C  0.72698864  0.41518693  0.88771236     0.18700
C1448       C  0.71363341  0.41579624  0.85962960    -0.17900
C1449       C  0.69260398  0.41624582  0.86549745    -0.20100
C1450       C  0.68451951  0.41608505  0.89956253     0.20200
C1451       C  0.66365520  0.41690707  0.90567268    -0.33100
C1452       C  0.65556856  0.41689307  0.93989917     0.00900
C1453       C  0.66864444  0.41571712  0.96807546    -0.24500
C1454       C  0.75315545  0.41389094  0.94455469    -0.29000
C1455       C  0.76169257  0.41458349  0.91044106     0.06500
C1456       C  0.74836612  0.41512860  0.88210055    -0.27700
H1457       H  0.73335353  0.41240698  0.00668710     0.11300
H1458       H  0.69655533  0.41314419  0.01693193     0.12400
H1459       H  0.71951254  0.41604131  0.83309836     0.11500
H1460       H  0.68270666  0.41683168  0.84334619     0.10700
H1461       H  0.65379839  0.41771034  0.88361793     0.16100
H1462       H  0.66255731  0.41542465  0.99450321     0.12000
H1463       H  0.76309788  0.41342835  0.96675392     0.14900
H1464       H  0.75460725  0.41554856  0.85573241     0.14600
C1465       C  0.56784788  0.57347088  0.80713396    -0.18200
C1466       C  0.57368959  0.56066144  0.83072367    -0.20400
C1467       C  0.56234361  0.53473440  0.82866227     0.20200
C1468       C  0.54571289  0.52183002  0.80146688    -0.03300
C1469       C  0.54020645  0.53483671  0.77716997    -0.06400
C1470       C  0.55076518  0.56066445  0.78071095     0.20500
C1471       C  0.52288836  0.52172497  0.75081817     0.18700
C1472       C  0.51191123  0.49590272  0.74824835    -0.17900
C1473       C  0.51706094  0.48302594  0.77256804    -0.20100
C1474       C  0.53360502  0.49576454  0.79957276     0.20200
C1475       C  0.53755157  0.48274457  0.82536117    -0.33100
C1476       C  0.55392232  0.49524646  0.85288354     0.00900
C1477       C  0.56666415  0.52140423  0.85390046    -0.24500
C1478       C  0.54251139  0.57278165  0.75975977    -0.29000
C1479       C  0.52383114  0.55940896  0.73535322     0.06500
C1480       C  0.51522390  0.53423294  0.72957044    -0.27700
H1481       H  0.57618484  0.59333086  0.81020078     0.11300
H1482       H  0.58653064  0.57096150  0.85127417     0.12400
H1483       H  0.49857129  0.48551024  0.72827415     0.11500
H1484       H  0.50762477  0.46297551  0.77074126     0.10700
H1485       H  0.52746113  0.46265534  0.82425725     0.16100
H1486       H  0.57915151  0.53126588  0.87500767     0.12000
H1487       H  0.54879490  0.59206261  0.76487992     0.14900
H1488       H  0.50034139  0.52368439  0.71163214     0.14600
C1489       C  0.43301724  0.44720021  0.08090996    -0.18200
C1490       C  0.43849493  0.43389048  0.05756499    -0.20400
C1491       C  0.45536581  0.44616380  0.03041280     0.20200
C1492       C  0.46627757  0.47201248  0.02616396    -0.03300
C1493       C  0.46133621  0.48556710  0.05042351    -0.06400
C1494       C  0.44470852  0.47311733  0.07804480     0.20500
C1495       C  0.47387302  0.51167454  0.04792532     0.18700
C1496       C  0.49031179  0.52388867  0.02033488    -0.17900
C1497       C  0.49475611  0.51043401  0.99586515    -0.20100
C1498       C  0.48328914  0.48456111  0.99898571     0.20200
C1499       C  0.49016144  0.47142224  0.97736776    -0.33100
C1500       C  0.48127216  0.44622830  0.98376756     0.00900
C1501       C  0.46299313  0.43346395  0.00925415    -0.24500
C1502       C  0.44073755  0.48686491  0.10297299    -0.29000
C1503       C  0.45395737  0.51300869  0.10148929     0.06500
C1504       C  0.47032506  0.52518358  0.07359511    -0.27700
H1505       H  0.42020877  0.43730420  0.10190655     0.11300
H1506       H  0.42993377  0.41404513  0.06124376     0.12400
H1507       H  0.50017082  0.54394420  0.01810016     0.11500
H1508       H  0.50793323  0.52040795  0.97529581     0.10700
H1509       H  0.50477835  0.48152089  0.95861077     0.16100
H1510       H  0.45655165  0.41421039  0.01494139     0.12000
H1511       H  0.42812611  0.47728436  0.12430451     0.14900
H1512       H  0.48051961  0.54527953  0.07197393     0.14600
C1513       C  0.63040660  0.32935139  0.52886370    -0.18200
C1514       C  0.63226658  0.30921805  0.53870465    -0.20400
C1515       C  0.61646254  0.29210070  0.56391252     0.20200
C1516       C  0.59895876  0.29566268  0.57988190    -0.03300
C1517       C  0.59667646  0.31565262  0.56931752    -0.06400
C1518       C  0.61239678  0.33250672  0.54354000     0.20500
C1519       C  0.57803972  0.31816621  0.58356790     0.18700
C1520       C  0.56266042  0.30143744  0.60938856    -0.17900
C1521       C  0.56527123  0.28201705  0.62038614    -0.20100
C1522       C  0.58310910  0.27872255  0.60547323     0.20200
C1523       C  0.58476447  0.25829678  0.61482415    -0.33100
C1524       C  0.60142793  0.25396186  0.59799393     0.00900
C1525       C  0.61735543  0.27111713  0.57269806    -0.24500
C1526       C  0.60914539  0.35152814  0.53189023    -0.29000
C1527       C  0.58977654  0.35326764  0.54466880     0.06500
C1528       C  0.57451457  0.33673583  0.57081919    -0.27700
H1529       H  0.64265171  0.34208638  0.50906458     0.11300
H1530       H  0.64589518  0.30686320  0.52625501     0.12400
H1531       H  0.54832770  0.30313604  0.62072585     0.11500
H1532       H  0.55290991  0.26918005  0.63999097     0.10700
H1533       H  0.57221946  0.24504932  0.63393827     0.16100
H1534       H  0.63026428  0.26795604  0.55955718     0.12000
H1535       H  0.62082099  0.36412834  0.51151753     0.14900
H1536       H  0.55963099  0.33809104  0.58075450     0.14600
C1537       C  0.73151007  0.43943084  0.36918624    -0.18200
C1538       C  0.71204738  0.44250139  0.37540828    -0.20400
C1539       C  0.69896183  0.43445250  0.40687695     0.20200
C1540       C  0.70571891  0.42342296  0.43247786    -0.03300
C1541       C  0.72534530  0.42029814  0.42617181    -0.06400
C1542       C  0.73825443  0.42827732  0.39432984     0.20500
C1543       C  0.73204590  0.40922539  0.45175468     0.18700
C1544       C  0.71901218  0.40123053  0.48326131    -0.17900
C1545       C  0.69952701  0.40423818  0.48945797    -0.20100
C1546       C  0.69278626  0.41537334  0.46430727     0.20200
C1547       C  0.67312730  0.41825907  0.47024355    -0.33100
C1548       C  0.66589059  0.42865602  0.44452601     0.00900
C1549       C  0.67902717  0.43688692  0.41299624    -0.24500
C1550       C  0.75778347  0.42515461  0.38830161    -0.29000
C1551       C  0.76480185  0.41439683  0.41386116     0.06500
C1552       C  0.75172800  0.40644523  0.44550935    -0.27700
H1553       H  0.74127977  0.44576347  0.34465944     0.11300
H1554       H  0.70715689  0.45108012  0.35551600     0.12400
H1555       H  0.72389362  0.39263895  0.50314669     0.11500
H1556       H  0.68970115  0.39782108  0.51393574     0.10700
H1557       H  0.66290577  0.41159785  0.49440981     0.16100
H1558       H  0.67357643  0.44498388  0.39310708     0.12000
H1559       H  0.76778940  0.43153893  0.36394653     0.14900
H1560       H  0.75688101  0.39810252  0.46542909     0.14600
C1561       C  0.57153082  0.38881458  0.72964664    -0.18200
C1562       C  0.57911637  0.39479888  0.69497108    -0.20400
C1563       C  0.57703590  0.41290675  0.67751461     0.20200
C1564       C  0.56708494  0.42501414  0.69518634    -0.03300
C1565       C  0.55934179  0.41890583  0.73006840    -0.06400
C1566       C  0.56170203  0.40081122  0.74737780     0.20500
C1567       C  0.54965449  0.43122865  0.74778887     0.18700
C1568       C  0.54759805  0.44935508  0.73039636    -0.17900
C1569       C  0.55492450  0.45515150  0.69566475    -0.20100
C1570       C  0.56472770  0.44312988  0.67795998     0.20200
C1571       C  0.57158103  0.44843022  0.64301444    -0.33100
C1572       C  0.58053869  0.43571498  0.62476495     0.00900
C1573       C  0.58394217  0.41852351  0.64240083    -0.24500
C1574       C  0.55514808  0.39579401  0.78253608    -0.29000
C1575       C  0.54660557  0.40888618  0.80078369     0.06500
C1576       C  0.54314303  0.42595496  0.78297492    -0.27700
H1577       H  0.57352140  0.37492664  0.74268949     0.11300
H1578       H  0.58657765  0.38523678  0.68178994     0.12400
H1579       H  0.54046642  0.45914883  0.74370558     0.11500
H1580       H  0.55296834  0.46907805  0.68266483     0.10700
H1581       H  0.56886396  0.46168959  0.62945772     0.16100
H1582       H  0.59040646  0.40836933  0.62826831     0.12000
H1583       H  0.55804339  0.38273171  0.79629916     0.14900
H1584       H  0.53709316  0.43642974  0.79707771     0.14600
C1585       C  0.57480737  0.38971353  0.23062638    -0.18200
C1586       C  0.57963123  0.39375781  0.19485223    -0.20400
C1587       C  0.57473919  0.40971950  0.17671312     0.20200
C1588       C  0.56452643  0.42140574  0.19482789    -0.03300
C1589       C  0.55939613  0.41710108  0.23079868    -0.06400
C1590       C  0.56486799  0.40144443  0.24885425     0.20500
C1591       C  0.54922430  0.42886014  0.24879654     0.18700
C1592       C  0.54416520  0.44466403  0.23067534    -0.17900
C1593       C  0.54920934  0.44890885  0.19509046    -0.20100
C1594       C  0.55940402  0.43740485  0.17702802     0.20200
C1595       C  0.56406334  0.44125391  0.14129957    -0.33100
C1596       C  0.57353325  0.42913784  0.12269889     0.00900
C1597       C  0.57932024  0.41376802  0.14070598    -0.24500
C1598       C  0.56120020  0.39861404  0.28501827    -0.29000
C1599       C  0.55203159  0.41115275  0.30333557     0.06500
C1600       C  0.54524048  0.42547361  0.28483802    -0.27700
H1601       H  0.57905104  0.37756554  0.24410840     0.11300
H1602       H  0.58729129  0.38448134  0.18140270     0.12400
H1603       H  0.53655241  0.45396154  0.24410477     0.11500
H1604       H  0.54513261  0.46121193  0.18168121     0.10700
H1605       H  0.55955942  0.45317097  0.12766810     0.16100
H1606       H  0.58626799  0.40408816  0.12649309     0.12000
H1607       H  0.56650648  0.38754428  0.29919393     0.14900
H1608       H  0.53851524  0.43542851  0.29882200     0.14600
C1609       C  0.51439925  0.49843436  0.25036016    -0.18200
C1610       C  0.51967458  0.48568160  0.27480059    -0.20400
C1611       C  0.53608387  0.49850931  0.30193133     0.20200
C1612       C  0.54783835  0.52455544  0.30385143    -0.03300
C1613       C  0.54221163  0.53743418  0.27941164    -0.06400
C1614       C  0.52510133  0.52424110  0.25287715     0.20500
C1615       C  0.55256461  0.56324123  0.28284829     0.18700
C1616       C  0.56957514  0.57616428  0.30931677    -0.17900
C1617       C  0.57554206  0.56350733  0.33300633    -0.20100
C1618       C  0.56438772  0.53760036  0.33105140     0.20200
C1619       C  0.56891668  0.52446466  0.35634016    -0.33100
C1620       C  0.55658923  0.49831661  0.35535401     0.00900
C1621       C  0.54038149  0.48563629  0.32766319    -0.24500
C1622       C  0.51744775  0.53666085  0.23127876    -0.29000
C1623       C  0.52584728  0.56185040  0.23685586     0.06500
C1624       C  0.54428474  0.57525168  0.26162399    -0.27700
H1625       H  0.50121151  0.48794843  0.23025824     0.11300
H1626       H  0.51043115  0.46565230  0.27296010     0.12400
H1627       H  0.57780474  0.59601383  0.31229427     0.11500
H1628       H  0.58836612  0.57391930  0.35352638     0.10700
H1629       H  0.58139961  0.53451380  0.37737620     0.16100
H1630       H  0.53083970  0.46556599  0.32622064     0.12000
H1631       H  0.50278079  0.52603534  0.21306459     0.14900
H1632       H  0.55046471  0.59451656  0.26663909     0.14600
C1633       C  0.48581119  0.51899117  0.52553685    -0.18200
C1634       C  0.49132947  0.50638440  0.50101552    -0.20400
C1635       C  0.48213595  0.48093621  0.50495516     0.20200
C1636       C  0.46619573  0.46785958  0.53307207    -0.03300
C1637       C  0.46012562  0.48053200  0.55747432    -0.06400
C1638       C  0.47054423  0.50630795  0.55410567     0.20500
C1639       C  0.44455463  0.46766152  0.58603858     0.18700
C1640       C  0.43505203  0.44209103  0.58957844    -0.17900
C1641       C  0.44166459  0.42972135  0.56607177    -0.20100
C1642       C  0.45751400  0.44251053  0.53801061     0.20200
C1643       C  0.46631314  0.43097567  0.51647799    -0.33100
C1644       C  0.48361874  0.44439333  0.48989538     0.00900
C1645       C  0.49024575  0.46894316  0.48306254    -0.24500
C1646       C  0.46614283  0.51915554  0.57983042    -0.29000
C1647       C  0.45069943  0.50672766  0.60866306     0.06500
C1648       C  0.43948237  0.48073145  0.61107455    -0.27700
H1649       H  0.49385371  0.53881413  0.52246359     0.11300
H1650       H  0.50357361  0.51677486  0.47968427     0.12400
H1651       H  0.42308536  0.43178758  0.61119206     0.11500
H1652       H  0.43477598  0.41021883  0.57031000     0.10700
H1653       H  0.46154574  0.41225074  0.52254672     0.16100
H1654       H  0.50408588  0.47966645  0.46352933     0.12000
H1655       H  0.47514588  0.53913246  0.57754599     0.14900
H1656       H  0.42774426  0.47089837  0.63310695     0.14600
loop_ 
_geom_bond_atom_site_label_1 
_geom_bond_atom_site_label_2 
_geom_bond_distance 
_geom_bond_site_symmetry_2 
_ccdc_geom_bond_type 
Zr1           O2   2.437       .  S
Zr1           O3   2.447       .  S
Zr1           O4   2.455       .  S
Zr1           O7   2.433       .  S
Zr1           O9   2.373       .  S
Zr1          O10   2.381       .  S
Zr1          O11   2.416       .  S
Zr1          O12   2.416       .  S
O2           H58   0.990       .  S
O2           H66   0.990       .  S
O3           C23   1.286       .  A
O4           C25   1.288       .  A
O5          Zr15   2.432       .  S
O5           C24   1.285       .  A
O6          Zr14   2.383       .  S
O6           C25   1.276       .  A
O7           C24   1.286       .  A
O8          Zr16   2.454       .  S
O8           C23   1.288       .  A
O9          Zr14   2.377       .  S
O9          Zr16   2.366       .  S
O10         Zr15   2.369       .  S
O10         Zr16   2.373       .  S
O10          H45   0.966       .  S
O11         Zr14   2.385       .  S
O11         Zr31   2.418       .  S
O11          H48   0.966       .  S
O12         Zr15   2.388       .  S
O12         Zr31   2.418       .  S
Zr13         O38   2.435       .  S
Zr13         O32   2.423       .  S
Zr13         O40   2.461       .  S
Zr13         O28   2.505       .  S
Zr13         O19   2.421       .  S
Zr13         O20   2.410       .  S
Zr13         O21   2.373       .  S
Zr13         O22   2.390       .  S
Zr14         O33   2.436       .  S
Zr14         O26   2.434       .  S
Zr14         O27   2.384       .  S
Zr14         O20   2.389       .  S
Zr14         O21   2.384       .  S
Zr15         O17   2.436       .  S
Zr15         O39   2.435       .  S
Zr15         O41   2.408       .  S
Zr15         O19   2.400       .  S
Zr15         O22   2.387       .  S
Zr16         O42   2.436       .  S
Zr16         O43   2.435       .  S
Zr16         O18   2.438       .  S
Zr16         O19   2.406       .  S
Zr16         O20   2.409       .  S
O17          H54   0.990       .  S
O18          H49   0.990       .  S
O18          H63   0.990       .  S
O20          H46   0.969       .  S
O21         Zr31   2.367       .  S
O22         Zr31   2.361       .  S
O22          H47   0.966       .  S
C23        C1527   1.484       .  S
C24        C1548   1.481       .  S
C25        C1572   1.472       .  S
O26          H62   0.990       .  S
O27          C29   1.275       .  A
O28          C29   1.298       .  A
C29        C1644   1.487       .  S
O30         Zr31   2.438       .  S
O30          H59   0.991       .  S
Zr31         O34   2.438       .  S
Zr31         O35   2.438       .  S
Zr31         O36   2.481       .  S
O32          C37   1.284       .  A
O33          H50   0.990       .  S
O33          H65   0.990       .  S
O34          H51   0.990       .  S
O35          H55   0.990       .  S
O35          H64   0.990       .  S
O36          C37   1.293       .  A
C37        C1620   1.500       .  S
O38          H57   0.990       .  S
O38          H61   0.990       .  S
O39          H53   0.990       .  S
O39          H60   0.990       .  S
O40          C44   1.292       .  A
O41          C44   1.281       .  A
O42          H52   0.990       .  S
O43          H56   0.990       .  S
C44        C1599   1.478       .  S
Zr67         O68   2.436       .  S
Zr67         O69   2.440       .  S
Zr67         O70   2.462       .  S
Zr67         O73   2.453   1_554  S
Zr67         O75   2.376       .  S
Zr67         O76   2.380   1_554  S
Zr67         O77   2.423       .  S
Zr67         O78   2.414   1_554  S
O68         H124   0.990       .  S
O68         H132   0.990       .  S
O69          C89   1.286       .  A
O70          C91   1.289       .  A
O71         Zr81   2.420       .  S
O71          C90   1.283       .  A
O72         Zr80   2.391       .  S
O72          C91   1.278       .  A
O73          C90   1.290       .  A
O74         Zr82   2.451   1_554  S
O74          C89   1.288       .  A
O75         Zr80   2.380       .  S
O75         Zr82   2.366   1_554  S
O76         Zr81   2.370       .  S
O76         Zr82   2.377       .  S
O76         H111   0.966       .  S
O77         Zr80   2.388       .  S
O77         Zr97   2.424   1_554  S
O77         H114   0.966       .  S
O78         Zr81   2.387       .  S
O78         Zr97   2.416       .  S
Zr79        O104   2.435       .  S
Zr79         O98   2.415       .  S
Zr79        O106   2.449       .  S
Zr79         O94   2.486       .  S
Zr79         O85   2.415       .  S
Zr79         O86   2.406       .  S
Zr79         O87   2.374       .  S
Zr79         O88   2.387       .  S
Zr80         O99   2.437       .  S
Zr80         O92   2.436       .  S
Zr80         O93   2.393       .  S
Zr80         O86   2.390   1_554  S
Zr80         O87   2.378   1_554  S
Zr81         O83   2.436       .  S
Zr81        O105   2.434       .  S
Zr81        O107   2.396       .  S
Zr81         O85   2.393       .  S
Zr81         O88   2.383       .  S
Zr82        O108   2.436       .  S
Zr82        O109   2.435       .  S
Zr82         O84   2.437   1_556  S
Zr82         O85   2.403       .  S
Zr82         O86   2.406       .  S
O83         H120   0.990       .  S
O84         H115   0.990       .  S
O84         H129   0.990       .  S
O86         H112   0.968       .  S
O87         Zr97   2.368       .  S
O88         Zr97   2.359       .  S
O88         H113   0.966       .  S
C89        C1428   1.490       .  S
C90        C1452   1.492       .  S
C91        C1596   1.480       .  S
O92         H128   0.990       .  S
O93          C95   1.277   1_554  A
O94          C95   1.294       .  A
C95        C1500   1.478       .  S
O96         Zr97   2.434       .  S
O96         H125   0.990       .  S
Zr97        O100   2.438       .  S
Zr97        O101   2.436       .  S
Zr97        O102   2.484       .  S
O98         C103   1.283       .  A
O99         H116   0.990       .  S
O99         H131   0.990       .  S
O100        H117   0.990       .  S
O101        H121   0.990       .  S
O101        H130   0.990       .  S
O102        C103   1.293       .  A
C103       C1476   1.496       .  S
O104        H123   0.990       .  S
O104        H127   0.990       .  S
O105        H119   0.990       .  S
O105        H126   0.990       .  S
O106        C110   1.289       .  A
O107        C110   1.279       .  A
O108        H118   0.990       .  S
O109        H122   0.990       .  S
C110       C1575   1.471       .  S
Zr133       O134   2.438       .  S
Zr133       O135   2.440       .  S
Zr133       O136   2.457       .  S
Zr133       O139   2.438       .  S
Zr133       O141   2.380       .  S
Zr133       O142   2.381       .  S
Zr133       O143   2.416       .  S
Zr133       O144   2.410       .  S
O134        H190   0.990       .  S
O134        H198   0.990       .  S
O135        C155   1.285       .  A
O136        C157   1.289       .  A
O137       Zr147   2.425       .  S
O137        C156   1.284       .  A
O138       Zr146   2.397       .  S
O138        C157   1.278       .  A
O139        C156   1.287       .  A
O140       Zr148   2.442       .  S
O140        C155   1.286       .  A
O141       Zr146   2.388       .  S
O141       Zr148   2.369       .  S
O142       Zr147   2.366       .  S
O142       Zr148   2.370       .  S
O142        H177   0.966       .  S
O143       Zr146   2.387       .  S
O143       Zr163   2.415       .  S
O143        H180   0.966       .  S
O144       Zr147   2.387       .  S
O144       Zr163   2.408       .  S
Zr145       O170   2.436       .  S
Zr145       O164   2.424       .  S
Zr145       O172   2.462       .  S
Zr145       O160   2.494       .  S
Zr145       O151   2.418       .  S
Zr145       O152   2.409       .  S
Zr145       O153   2.377       .  S
Zr145       O154   2.386       .  S
Zr146       O165   2.436       .  S
Zr146       O158   2.435       .  S
Zr146       O159   2.399       .  S
Zr146       O152   2.397       .  S
Zr146       O153   2.378       .  S
Zr147       O149   2.437       .  S
Zr147       O171   2.436       .  S
Zr147       O173   2.401       .  S
Zr147       O151   2.398       .  S
Zr147       O154   2.377       .  S
Zr148       O174   2.438       .  S
Zr148       O175   2.434       .  S
Zr148       O150   2.437       .  S
Zr148       O151   2.401       .  S
Zr148       O152   2.407       .  S
O149        H186   0.990       .  S
O150        H181   0.990       .  S
O150        H195   0.990       .  S
O152        H178   0.967       .  S
O153       Zr163   2.371       .  S
O154       Zr163   2.365       .  S
O154        H179   0.966       .  S
C155       C1335   1.482       .  S
C156       C1359   1.488       .  S
C157       C1407   1.475       .  S
O158        H194   0.990       .  S
O159        C161   1.277       .  A
O160        C161   1.296       .  A
C161       C1623   1.485       .  S
O162       Zr163   2.439       .  S
O162        H191   0.990       .  S
Zr163       O166   2.437       .  S
Zr163       O167   2.439       .  S
Zr163       O168   2.460       .  S
O164        C169   1.284       .  A
O165        H182   0.990       .  S
O165        H197   0.990       .  S
O166        H183   0.990       .  S
O167        H187   0.990       .  S
O167        H196   0.989       .  S
O168        C169   1.290       .  A
C169       C1503   1.490       .  S
O170        H189   0.990       .  S
O170        H193   0.990       .  S
O171        H185   0.990       .  S
O171        H192   0.990       .  S
O172        C176   1.292       .  A
O173        C176   1.279       .  A
O174        H184   0.990       .  S
O175        H188   0.990       .  S
C176       C1380   1.478       .  S
Zr199       O200   2.439       .  S
Zr199       O201   2.464       .  S
Zr199       O202   2.452       .  S
Zr199       O205   2.438       .  S
Zr199       O207   2.373       .  S
Zr199       O208   2.380       .  S
Zr199       O209   2.423       .  S
Zr199       O210   2.424       .  S
O200        H256   0.990       .  S
O200        H264   0.990       .  S
O201        C221   1.290       .  A
O202        C223   1.287       .  A
O203       Zr213   2.428       .  S
O203        C222   1.286       .  A
O204       Zr212   2.397       .  S
O204        C223   1.279       .  A
O205        C222   1.287       .  A
O206       Zr214   2.422       .  S
O206        C221   1.283       .  A
O207       Zr212   2.375       .  S
O207       Zr214   2.373       .  S
O208       Zr213   2.372       .  S
O208       Zr214   2.372       .  S
O208        H243   0.967       .  S
O209       Zr212   2.386       .  S
O209       Zr229   2.432       .  S
O209        H246   0.966       .  S
O210       Zr213   2.385       .  S
O210       Zr229   2.422       .  S
Zr211       O236   2.434       .  S
Zr211       O230   2.400       .  S
Zr211       O238   2.455       .  S
Zr211       O226   2.486       .  S
Zr211       O217   2.412       .  S
Zr211       O218   2.400       .  S
Zr211       O219   2.373       .  S
Zr211       O220   2.387       .  S
Zr212       O231   2.437       .  S
Zr212       O224   2.435       .  S
Zr212       O225   2.388       .  S
Zr212       O218   2.390       .  S
Zr212       O219   2.385       .  S
Zr213       O215   2.436       .  S
Zr213       O237   2.436       .  S
Zr213       O239   2.410       .  S
Zr213       O217   2.397       .  S
Zr213       O220   2.383       .  S
Zr214       O240   2.438       .  S
Zr214       O241   2.434       .  S
Zr214       O216   2.436       .  S
Zr214       O217   2.390       .  S
Zr214       O218   2.399       .  S
O215        H252   0.990       .  S
O216        H247   0.990       .  S
O216        H261   0.990       .  S
O218        H244   0.970       .  S
O219       Zr229   2.366       .  S
O220       Zr229   2.353       .  S
O220        H245   0.966       .  S
C221       C1284   1.495       .  S
C222       C1308   1.488       .  S
C223       C1383   1.477       .  S
O224        H260   0.990       .  S
O225        C227   1.277       .  A
O226        C227   1.295       .  A
C227       C1479   1.478       .  S
O228       Zr229   2.435       .  S
O228        H257   0.990       .  S
Zr229       O232   2.435       .  S
Zr229       O233   2.439       .  S
Zr229       O234   2.505       .  S
O230        C235   1.280       .  A
O231        H248   0.990       .  S
O231        H263   0.990       .  S
O232        H249   0.990       .  S
O233        H253   0.990       .  S
O233        H262   0.990       .  S
O234        C235   1.297       .  A
C235       C1647   1.503       .  S
O236        H255   0.990       .  S
O236        H259   0.990       .  S
O237        H251   0.990       .  S
O237        H258   0.990       .  S
O238        C242   1.290       .  A
O239        C242   1.282       .  A
O240        H250   0.990       .  S
O241        H254   0.990       .  S
C242       C1404   1.475       .  S
Zr265       O266   2.437       .  S
Zr265       O267   2.418       .  S
Zr265       O268   2.484       .  S
Zr265       O271   2.466       .  S
Zr265       O273   2.383       .  S
Zr265       O274   2.386       .  S
Zr265       O275   2.405       .  S
Zr265       O276   2.411       .  S
O266        H322   0.990       .  S
O266        H330   0.990       .  S
O267        C287   1.283       .  A
O268        C289   1.294       .  A
O269       Zr279   2.398       .  S
O269        C288   1.279       .  A
O270       Zr278   2.392       .  S
O270        C289   1.278       .  A
O271        C288   1.293       .  A
O272       Zr280   2.478       .  S
O272        C287   1.292       .  A
O273       Zr278   2.387       .  S
O273       Zr280   2.368       .  S
O274       Zr279   2.384       .  S
O274       Zr280   2.363       .  S
O274        H309   0.965       .  S
O275       Zr278   2.394       .  S
O275       Zr295   2.401       .  S
O275        H312   0.967       .  S
O276       Zr279   2.398       .  S
O276       Zr295   2.398       .  S
Zr277       O302   2.439       .  S
Zr277       O296   2.453       .  S
Zr277       O304   2.437       .  S
Zr277       O292   2.448       .  S
Zr277       O283   2.415       .  S
Zr277       O284   2.421       .  S
Zr277       O285   2.372       .  S
Zr277       O286   2.377       .  S
Zr278       O297   2.435       .  S
Zr278       O290   2.437       .  S
Zr278       O291   2.404       .  S
Zr278       O284   2.387       .  S
Zr278       O285   2.378       .  S
Zr279       O281   2.434       .  S
Zr279       O303   2.439       .  S
Zr279       O305   2.426       .  S
Zr279       O283   2.385       .  S
Zr279       O286   2.370       .  S
Zr280       O306   2.435       .  S
Zr280       O307   2.435       .  S
Zr280       O282   2.436       .  S
Zr280       O283   2.415       .  S
Zr280       O284   2.418       .  S
O281        H318   0.990       .  S
O282        H313   0.990       .  S
O282        H327   0.990       .  S
O284        H310   0.965       .  S
O285       Zr295   2.368       .  S
O286       Zr295   2.374       .  S
O286        H311   0.964       .  S
C287       C1191   1.496       .  S
C288       C1236   1.481       .  S
C289       C1260   1.476       .  S
O290        H326   0.990       .  S
O291        C293   1.279       .  A
O292        C293   1.287       .  A
C293       C1212   1.475   1_554  S
O294       Zr295   2.438       .  S
O294        H323   0.991       .  S
Zr295       O298   2.438       .  S
Zr295       O299   2.439       .  S
Zr295       O300   2.430       .  S
O296        C301   1.288       .  A
O297        H314   0.990       .  S
O297        H329   0.990       .  S
O298        H315   0.990       .  S
O299        H319   0.990       .  S
O299        H328   0.990       .  S
O300        C301   1.284       .  A
C301       C1164   1.488       .  S
O302        H321   0.990       .  S
O302        H325   0.990       .  S
O303        H317   0.990       .  S
O303        H324   0.990       .  S
O304        C308   1.287       .  A
O305        C308   1.285       .  A
O306        H316   0.990       .  S
O307        H320   0.990       .  S
C308       C1356   1.487       .  S
Zr331       O332   2.435       .  S
Zr331       O333   2.402       .  S
Zr331       O334   2.478       .  S
Zr331       O337   2.445       .  S
Zr331       O339   2.374       .  S
Zr331       O340   2.387       .  S
Zr331       O341   2.400       .  S
Zr331       O342   2.412       .  S
O332        H388   0.990       .  S
O332        H396   0.990       .  S
O333        C353   1.281       .  A
O334        C355   1.293       .  A
O335       Zr345   2.409       .  S
O335        C354   1.281       .  A
O336       Zr344   2.401       .  S
O336        C355   1.279       .  A
O337        C354   1.288       .  A
O338       Zr346   2.497       .  S
O338        C353   1.295       .  A
O339       Zr344   2.388       .  S
O339       Zr346   2.360       .  S
O340       Zr345   2.381       .  S
O340       Zr346   2.357       .  S
O340        H375   0.965       .  S
O341       Zr344   2.390       .  S
O341       Zr361   2.397       .  S
O341        H378   0.965       .  S
O342       Zr345   2.392       .  S
O342       Zr361   2.393       .  S
Zr343       O368   2.439       .  S
Zr343       O362   2.459       .  S
Zr343       O370   2.452       .  S
Zr343       O358   2.472       .  S
Zr343       O349   2.419       .  S
Zr343       O350   2.423       .  S
Zr343       O351   2.375       .  S
Zr343       O352   2.384       .  S
Zr344       O363   2.439       .  S
Zr344       O356   2.438       .  S
Zr344       O357   2.399       .  S
Zr344       O350   2.394       .  S
Zr344       O351   2.377       .  S
Zr345       O347   2.437       .  S
Zr345       O369   2.437       .  S
Zr345       O371   2.424       .  S
Zr345       O349   2.391       .  S
Zr345       O352   2.373       .  S
Zr346       O372   2.435       .  S
Zr346       O373   2.434       .  S
Zr346       O348   2.438       .  S
Zr346       O349   2.419       .  S
Zr346       O350   2.428       .  S
O347        H384   0.990       .  S
O348        H379   0.990       .  S
O348        H393   0.989       .  S
O350        H376   0.966       .  S
O351       Zr361   2.371       .  S
O352       Zr361   2.382       .  S
O352        H377   0.965       .  S
C353       C1119   1.500       .  S
C354       C1215   1.469       .  S
C355       C1143   1.475       .  S
O356        H392   0.990       .  S
O357        C359   1.280       .  A
O358        C359   1.291       .  A
C359       C1239   1.484       .  S
O360       Zr361   2.439       .  S
O360        H389   0.990       .  S
Zr361       O364   2.437       .  S
Zr361       O365   2.439       .  S
Zr361       O366   2.417       .  S
O362        C367   1.289       .  A
O363        H380   0.990       .  S
O363        H395   0.990       .  S
O364        H381   0.990       .  S
O365        H385   0.990       .  S
O365        H394   0.990       .  S
O366        C367   1.283       .  A
C367       C1092   1.492       .  S
O368        H387   0.990       .  S
O368        H391   0.990       .  S
O369        H383   0.990       .  S
O369        H390   0.990       .  S
O370        C374   1.289       .  A
O371        C374   1.283       .  A
O372        H382   0.990       .  S
O373        H386   0.990       .  S
C374       C1311   1.493       .  S
Zr397       O398   2.436       .  S
Zr397       O399   2.411       .  S
Zr397       O400   2.475       .  S
Zr397       O403   2.443       .  S
Zr397       O405   2.374       .  S
Zr397       O406   2.384       .  S
Zr397       O407   2.402       .  S
Zr397       O408   2.412       .  S
O398        H454   0.990       .  S
O398        H462   0.990       .  S
O399        C419   1.282       .  A
O400        C421   1.292       .  A
O401       Zr411   2.402       .  S
O401        C420   1.280       .  A
O402       Zr410   2.394       .  S
O402        C421   1.276       .  A
O403        C420   1.288       .  A
O404       Zr412   2.472       .  S
O404        C419   1.291       .  A
O405       Zr410   2.380       .  S
O405       Zr412   2.370       .  S
O406       Zr411   2.383       .  S
O406       Zr412   2.359       .  S
O406        H441   0.965       .  S
O407       Zr410   2.388       .  S
O407       Zr427   2.399       .  S
O407        H444   0.965       .  S
O408       Zr411   2.396       .  S
O408       Zr427   2.399       .  S
Zr409       O434   2.440       .  S
Zr409       O428   2.469       .  S
Zr409       O436   2.436       .  S
Zr409       O424   2.434       .  S
Zr409       O415   2.405       .  S
Zr409       O416   2.424       .  S
Zr409       O417   2.374       .  S
Zr409       O418   2.380       .  S
Zr410       O429   2.440       .  S
Zr410       O422   2.436       .  S
Zr410       O423   2.394       .  S
Zr410       O416   2.390       .  S
Zr410       O417   2.373       .  S
Zr411       O413   2.434       .  S
Zr411       O435   2.437       .  S
Zr411       O437   2.426       .  S
Zr411       O415   2.385       .  S
Zr411       O418   2.371       .  S
Zr412       O438   2.436       .  S
Zr412       O439   2.436       .  S
Zr412       O414   2.440       .  S
Zr412       O415   2.407       .  S
Zr412       O416   2.420       .  S
O413        H450   0.990       .  S
O414        H445   0.990       .  S
O414        H459   0.990       .  S
O416        H442   0.966       .  S
O417       Zr427   2.360       .  S
O418       Zr427   2.377       .  S
O418        H443   0.965       .  S
C419       C1140   1.493       .  S
C420       C1044   1.474       .  S
C421       C1188   1.475       .  S
O422        H458   0.990       .  S
O423        C425   1.280       .  A
O424        C425   1.285       .  A
C425       C1068   1.473       .  S
O426       Zr427   2.437       .  S
O426        H455   0.991       .  S
Zr427       O430   2.439       .  S
Zr427       O431   2.436       .  S
Zr427       O432   2.428       .  S
O428        C433   1.291       .  A
O429        H446   0.990       .  S
O429        H461   0.990       .  S
O430        H447   0.990       .  S
O431        H451   0.990       .  S
O431        H460   0.990       .  S
O432        C433   1.285       .  A
C433       C1023   1.501       .  S
O434        H453   0.991       .  S
O434        H457   0.990       .  S
O435        H449   0.990       .  S
O435        H456   0.990       .  S
O436        C440   1.286       .  A
O437        C440   1.285       .  A
O438        H448   0.990       .  S
O439        H452   0.990       .  S
C440       C1551   1.487       .  S
Zr463       O464   2.435       .  S
Zr463       O465   2.403       .  S
Zr463       O466   2.484       .  S
Zr463       O469   2.441       .  S
Zr463       O471   2.368       .  S
Zr463       O472   2.386       .  S
Zr463       O473   2.400       .  S
Zr463       O474   2.413       .  S
O464        H520   0.990       .  S
O464        H528   0.990       .  S
O465        C485   1.281       .  A
O466        C487   1.293       .  A
O467       Zr477   2.392   1_554  S
O467        C486   1.280       .  A
O468       Zr476   2.405       .  S
O468        C487   1.277       .  A
O469        C486   1.289   1_556  A
O470       Zr478   2.486       .  S
O470        C485   1.293       .  A
O471       Zr476   2.382       .  S
O471       Zr478   2.368       .  S
O472       Zr477   2.377       .  S
O472       Zr478   2.359       .  S
O472        H507   0.966       .  S
O473       Zr476   2.387       .  S
O473       Zr493   2.405       .  S
O473        H510   0.967       .  S
O474       Zr477   2.396       .  S
O474       Zr493   2.393       .  S
Zr475       O500   2.439       .  S
Zr475       O494   2.454       .  S
Zr475       O502   2.449       .  S
Zr475       O490   2.436       .  S
Zr475       O481   2.412       .  S
Zr475       O482   2.423       .  S
Zr475       O483   2.381       .  S
Zr475       O484   2.377       .  S
Zr476       O495   2.438       .  S
Zr476       O488   2.434       .  S
Zr476       O489   2.397       .  S
Zr476       O482   2.394       .  S
Zr476       O483   2.378       .  S
Zr477       O479   2.436       .  S
Zr477       O501   2.436       .  S
Zr477       O503   2.416       .  S
Zr477       O481   2.382       .  S
Zr477       O484   2.373       .  S
Zr478       O504   2.434       .  S
Zr478       O505   2.435       .  S
Zr478       O480   2.436       .  S
Zr478       O481   2.416       .  S
Zr478       O482   2.420       .  S
O479        H516   0.990       .  S
O480        H511   0.990       .  S
O480        H525   0.990       .  S
O482        H508   0.965       .  S
O483       Zr493   2.367       .  S
O484       Zr493   2.374       .  S
O484        H509   0.965       .  S
C485       C1263   1.496   1_556  S
C486       C1071   1.471       .  S
C487       C1116   1.483       .  S
O488        H524   0.990       .  S
O489        C491   1.280       .  A
O490        C491   1.285       .  A
C491       C1047   1.470       .  S
O492       Zr493   2.435       .  S
O492        H521   0.990       .  S
Zr493       O496   2.436       .  S
Zr493       O497   2.438       .  S
Zr493       O498   2.433       .  S
O494        C499   1.288       .  A
O495        H512   0.990       .  S
O495        H527   0.990       .  S
O496        H513   0.990       .  S
O497        H517   0.990       .  S
O497        H526   0.990       .  S
O498        C499   1.286       .  A
C499        C996   1.492       .  S
O500        H519   0.990       .  S
O500        H523   0.990       .  S
O501        H515   0.990       .  S
O501        H522   0.990       .  S
O502        C506   1.288       .  A
O503        C506   1.282       .  A
O504        H514   0.990       .  S
O505        H518   0.990       .  S
C506       C1455   1.490       .  S
Zr529       O530   2.435       .  S
Zr529       O531   2.413       .  S
Zr529       O532   2.497       .  S
Zr529       O535   2.449       .  S
Zr529       O537   2.368       .  S
Zr529       O538   2.390       .  S
Zr529       O539   2.401       .  S
Zr529       O540   2.415       .  S
O530        H586   0.990       .  S
O530        H594   0.990       .  S
O531        C551   1.282       .  A
O532        C553   1.296       .  A
O533       Zr543   2.403       .  S
O533        C552   1.281   1_554  A
O534       Zr542   2.393       .  S
O534        C553   1.276       .  A
O535        C552   1.290   1_554  A
O536       Zr544   2.483       .  S
O536        C551   1.293       .  A
O537       Zr542   2.377       .  S
O537       Zr544   2.367       .  S
O538       Zr543   2.387       .  S
O538       Zr544   2.358       .  S
O538        H573   0.966       .  S
O539       Zr542   2.391       .  S
O539       Zr559   2.404       .  S
O539        H576   0.966       .  S
O540       Zr543   2.391       .  S
O540       Zr559   2.393       .  S
Zr541       O566   2.438       .  S
Zr541       O560   2.470       .  S
Zr541       O568   2.446       .  S
Zr541       O556   2.462       .  S
Zr541       O547   2.415       .  S
Zr541       O548   2.419       .  S
Zr541       O549   2.373       .  S
Zr541       O550   2.388       .  S
Zr542       O561   2.438       .  S
Zr542       O554   2.438       .  S
Zr542       O555   2.389       .  S
Zr542       O548   2.389       .  S
Zr542       O549   2.379       .  S
Zr543       O545   2.435       .  S
Zr543       O567   2.438       .  S
Zr543       O569   2.430       .  S
Zr543       O547   2.386       .  S
Zr543       O550   2.379       .  S
Zr544       O570   2.437       .  S
Zr544       O571   2.436       .  S
Zr544       O546   2.439       .  S
Zr544       O547   2.412       .  S
Zr544       O548   2.426       .  S
O545        H582   0.990       .  S
O546        H577   0.990       .  S
O546        H591   0.990       .  S
O548        H574   0.966       .  S
O549       Zr559   2.374       .  S
O550       Zr559   2.385       .  S
O550        H575   0.964       .  S
C551        C975   1.497       .  S
C552        C903   1.475       .  S
C553        C948   1.482       .  S
O554        H590   0.990       .  S
O555        C557   1.278       .  A
O556        C557   1.289       .  A
C557        C924   1.480       .  S
O558       Zr559   2.441       .  S
O558        H587   0.990       .  S
Zr559       O562   2.437       .  S
Zr559       O563   2.440       .  S
Zr559       O564   2.436       .  S
O560        C565   1.291       .  A
O561        H578   0.990       .  S
O561        H593   0.990       .  S
O562        H579   0.990       .  S
O563        H583   0.990       .  S
O563        H592   0.989       .  S
O564        C565   1.287       .  A
C565       C1020   1.499       .  S
O566        H585   0.990       .  S
O566        H589   0.990       .  S
O567        H581   0.990       .  S
O567        H588   0.990       .  S
O568        C572   1.286       .  A
O569        C572   1.283       .  A
O570        H580   0.990       .  S
O571        H584   0.990       .  S
C572       C1431   1.477       .  S
Zr595       O596   2.434       .  S
Zr595       O597   2.401       .  S
Zr595       O598   2.496       .  S
Zr595       O601   2.463       .  S
Zr595       O603   2.378       .  S
Zr595       O604   2.386       .  S
Zr595       O605   2.399       .  S
Zr595       O606   2.413       .  S
O596        H652   0.990       .  S
O596        H660   0.990       .  S
O597        C617   1.280       .  A
O598        C619   1.296       .  A
O599       Zr609   2.401       .  S
O599        C618   1.281       .  A
O600       Zr608   2.392       .  S
O600        C619   1.276       .  A
O601        C618   1.293       .  A
O602       Zr610   2.486       .  S
O602        C617   1.293       .  A
O603       Zr608   2.383       .  S
O603       Zr610   2.367       .  S
O604       Zr609   2.387       .  S
O604       Zr610   2.358       .  S
O604        H639   0.966       .  S
O605       Zr608   2.391       .  S
O605       Zr625   2.398       .  S
O605        H642   0.967       .  S
O606       Zr609   2.400       .  S
O606       Zr625   2.395       .  S
Zr607       O632   2.438       .  S
Zr607       O626   2.471       .  S
Zr607       O634   2.459       .  S
Zr607       O622   2.466       .  S
Zr607       O613   2.417       .  S
Zr607       O614   2.429       .  S
Zr607       O615   2.373       .  S
Zr607       O616   2.381       .  S
Zr608       O627   2.438       .  S
Zr608       O620   2.439       .  S
Zr608       O621   2.396       .  S
Zr608       O614   2.391       .  S
Zr608       O615   2.374       .  S
Zr609       O611   2.435       .  S
Zr609       O633   2.436       .  S
Zr609       O635   2.432       .  S
Zr609       O613   2.387       .  S
Zr609       O616   2.371       .  S
Zr610       O636   2.438       .  S
Zr610       O637   2.434       .  S
Zr610       O612   2.437       .  S
Zr610       O613   2.419       .  S
Zr610       O614   2.426       .  S
O611        H648   0.990       .  S
O612        H643   0.990       .  S
O612        H657   0.989       .  S
O614        H640   0.965       .  S
O615       Zr625   2.364       .  S
O616       Zr625   2.376       .  S
O616        H641   0.964       .  S
C617        C879   1.495       .  S
C618        C927   1.482       .  S
C619        C855   1.483       .  S
O620        H656   0.990       .  S
O621        C623   1.278       .  A
O622        C623   1.291       .  A
C623        C900   1.484       .  S
O624       Zr625   2.437       .  S
O624        H653   0.990       .  S
Zr625       O628   2.438       .  S
Zr625       O629   2.437       .  S
Zr625       O630   2.426       .  S
O626        C631   1.292       .  A
O627        H644   0.990       .  S
O627        H659   0.990       .  S
O628        H645   0.990       .  S
O629        H649   0.990       .  S
O629        H658   0.990       .  S
O630        C631   1.285       .  A
C631        C999   1.499       .  S
O632        H651   0.990       .  S
O632        H655   0.990       .  S
O633        H647   0.990       .  S
O633        H654   0.990       .  S
O634        C638   1.290       .  A
O635        C638   1.284       .  A
O636        H646   0.990       .  S
O637        H650   0.990       .  S
C638       C1524   1.490       .  S
Zr661       O662   2.439       .  S
Zr661       O663   2.407       .  S
Zr661       O664   2.483       .  S
Zr661       O667   2.457       .  S
Zr661       O669   2.378       .  S
Zr661       O670   2.388       .  S
Zr661       O671   2.400       .  S
Zr661       O672   2.410       .  S
O662        H718   0.990       .  S
O662        H726   0.990       .  S
O663        C683   1.282       .  A
O664        C685   1.293       .  A
O665       Zr675   2.409       .  S
O665        C684   1.282       .  A
O666       Zr674   2.384       .  S
O666        C685   1.275       .  A
O667        C684   1.292       .  A
O668       Zr676   2.480       .  S
O668        C683   1.292       .  A
O669       Zr674   2.384       .  S
O669       Zr676   2.365       .  S
O670       Zr675   2.389       .  S
O670       Zr676   2.363       .  S
O670        H705   0.965       .  S
O671       Zr674   2.393       .  S
O671       Zr691   2.398       .  S
O671        H708   0.964       .  S
O672       Zr675   2.393       .  S
O672       Zr691   2.394       .  S
Zr673       O698   2.436       .  S
Zr673       O692   2.449       .  S
Zr673       O700   2.455       .  S
Zr673       O688   2.464       .  S
Zr673       O679   2.410       .  S
Zr673       O680   2.418       .  S
Zr673       O681   2.373       .  S
Zr673       O682   2.385       .  S
Zr674       O693   2.438       .  S
Zr674       O686   2.436       .  S
Zr674       O687   2.393       .  S
Zr674       O680   2.392       .  S
Zr674       O681   2.373       .  S
Zr675       O677   2.435       .  S
Zr675       O699   2.438       .  S
Zr675       O701   2.428       .  S
Zr675       O679   2.389       .  S
Zr675       O682   2.378       .  S
Zr676       O702   2.437       .  S
Zr676       O703   2.435       .  S
Zr676       O678   2.436       .  S
Zr676       O679   2.411       .  S
Zr676       O680   2.422       .  S
O677        H714   0.990       .  S
O678        H709   0.990       .  S
O678        H723   0.990       .  S
O680        H706   0.966       .  S
O681       Zr691   2.369       .  S
O682       Zr691   2.384       .  S
O682        H707   0.965       .  S
C683        C951   1.495       .  S
C684        C828   1.479       .  S
C685        C876   1.473       .  S
O686        H722   0.990       .  S
O687        C689   1.277       .  A
O688        C689   1.290       .  A
C689        C804   1.480       .  S
O690       Zr691   2.440       .  S
O690        H719   0.990       .  S
Zr691       O694   2.438       .  S
Zr691       O695   2.440       .  S
Zr691       O696   2.422       .  S
O692        C697   1.287       .  A
O693        H710   0.990       .  S
O693        H725   0.990       .  S
O694        H711   0.990       .  S
O695        H715   0.990       .  S
O695        H724   0.990       .  S
O696        C697   1.283       .  A
C697       C1095   1.484       .  S
O698        H717   0.990       .  S
O698        H721   0.990       .  S
O699        H713   0.990       .  S
O699        H720   0.990       .  S
O700        C704   1.289       .  A
O701        C704   1.283       .  A
O702        H712   0.990       .  S
O703        H716   0.990       .  S
C704       C1332   1.483       .  S
Zr727       O728   2.435       .  S
Zr727       O729   2.412       .  S
Zr727       O730   2.485       .  S
Zr727       O733   2.452       .  S
Zr727       O735   2.371       .  S
Zr727       O736   2.383       .  S
Zr727       O737   2.409       .  S
Zr727       O738   2.420       .  S
O728        H784   0.990       .  S
O728        H792   0.990       .  S
O729        C749   1.283       .  A
O730        C751   1.293       .  A
O731       Zr741   2.412       .  S
O731        C750   1.282       .  A
O732       Zr740   2.405       .  S
O732        C751   1.276       .  A
O733        C750   1.290       .  A
O734       Zr742   2.496       .  S
O734        C749   1.295       .  A
O735       Zr740   2.380       .  S
O735       Zr742   2.363       .  S
O736       Zr741   2.383       .  S
O736       Zr742   2.355       .  S
O736        H771   0.964       .  S
O737       Zr740   2.391       .  S
O737       Zr757   2.405       .  S
O737        H774   0.965       .  S
O738       Zr741   2.394       .  S
O738       Zr757   2.399       .  S
Zr739       O764   2.441       .  S
Zr739       O758   2.466       .  S
Zr739       O766   2.457       .  S
Zr739       O754   2.461       .  S
Zr739       O745   2.420       .  S
Zr739       O746   2.426       .  S
Zr739       O747   2.375       .  S
Zr739       O748   2.385       .  S
Zr740       O759   2.438       .  S
Zr740       O752   2.436       .  S
Zr740       O753   2.391       .  S
Zr740       O746   2.391       .  S
Zr740       O747   2.379       .  S
Zr741       O743   2.435       .  S
Zr741       O765   2.445       .  S
Zr741       O767   2.433       .  S
Zr741       O745   2.389       .  S
Zr741       O748   2.379       .  S
Zr742       O768   2.436       .  S
Zr742       O769   2.435       .  S
Zr742       O744   2.437       .  S
Zr742       O745   2.415       .  S
Zr742       O746   2.430       .  S
O743        H780   0.990       .  S
O744        H775   0.990       .  S
O744        H789   0.990       .  S
O746        H772   0.966       .  S
O747       Zr757   2.367       .  S
O748       Zr757   2.382       .  S
O748        H773   0.965       .  S
C749        C852   1.503       .  S
C750        C807   1.478       .  S
C751        C972   1.483       .  S
O752        H788   0.990       .  S
O753        C755   1.278       .  A
O754        C755   1.289       .  A
C755        C831   1.479   1_556  S
O756       Zr757   2.439       .  S
O756        H785   0.990       .  S
Zr757       O760   2.437       .  S
Zr757       O761   2.442       .  S
Zr757       O762   2.429       .  S
O758        C763   1.291       .  A
O759        H776   0.991       .  S
O759        H791   0.990       .  S
O760        H777   0.990       .  S
O761        H781   0.990       .  S
O761        H790   0.989       .  S
O762        C763   1.285       .  A
C763       C1167   1.500       .  S
O764        H783   0.990       .  S
O764        H787   0.990       .  S
O765        H779   0.990       .  S
O765        H786   0.990       .  S
O766        C770   1.288       .  A
O767        C770   1.285       .  A
O768        H778   0.990       .  S
O769        H782   0.990       .  S
C770       C1287   1.485       .  S
C793        C794   1.398       .  A
C793        C798   1.403       .  A
C793        H809   1.083       .  S
C794        C795   1.402       .  A
C794        H810   1.084       .  S
C795        C805   1.404       .  A
C795        C796   1.413       .  A
C796        C802   1.409       .  A
C796        C797   1.412       .  A
C797        C799   1.413       .  A
C797        C798   1.410       .  A
C798        C806   1.400       .  A
C799        C808   1.406       .  A
C799        C800   1.404       .  A
C800        C801   1.400       .  A
C800        H811   1.082       .  S
C801        C802   1.405       .  A
C801        H812   1.084       .  S
C802        C803   1.403       .  A
C803        C804   1.411       .  A
C803        H813   1.085       .  S
C804        C805   1.404       .  A
C805        H814   1.084       .  S
C806        C807   1.407       .  A
C806        H815   1.085       .  S
C807        C808   1.406       .  A
C808        H816   1.081       .  S
C817        C818   1.400       .  A
C817        C822   1.403       .  A
C817        H833   1.084       .  S
C818        C819   1.405       .  A
C818        H834   1.083       .  S
C819        C829   1.402       .  A
C819        C820   1.409       .  A
C820        C826   1.414       .  A
C820        C821   1.412       .  A
C821        C823   1.408       .  A
C821        C822   1.415       .  A
C822        C830   1.408       .  A
C823        C832   1.397       .  A
C823        C824   1.403       .  A
C824        C825   1.397       .  A
C824        H835   1.084       .  S
C825        C826   1.402       .  A
C825        H836   1.082       .  S
C826        C827   1.403       .  A
C827        C828   1.404       .  A
C827        H837   1.083       .  S
C828        C829   1.411       .  A
C829        H838   1.084       .  S
C830        C831   1.405       .  A
C830        H839   1.084       .  S
C831        C832   1.409       .  A
C832        H840   1.085       .  S
C841        C842   1.400       .  A
C841        C846   1.403   1_565  A
C841        H857   1.084       .  S
C842        C843   1.405       .  A
C842        H858   1.084       .  S
C843        C853   1.403       .  A
C843        C844   1.407       .  A
C844        C850   1.415       .  A
C844        C845   1.420       .  A
C845        C847   1.409   1_565  A
C845        C846   1.414   1_565  A
C846        C854   1.410       .  A
C847        C856   1.411       .  A
C847        C848   1.406       .  A
C848        C849   1.405   1_545  A
C848        H859   1.083       .  S
C849        C850   1.406       .  A
C849        H860   1.083       .  S
C850        C851   1.418       .  A
C851        C852   1.412       .  A
C851        H861   1.084       .  S
C852        C853   1.413       .  A
C853        H862   1.082       .  S
C854        C855   1.406       .  A
C854        H863   1.085       .  S
C855        C856   1.412       .  A
C856        H864   1.084       .  S
C865        C866   1.398       .  A
C865        C870   1.404       .  A
C865        H881   1.083       .  S
C866        C867   1.402       .  A
C866        H882   1.084       .  S
C867        C877   1.406   1_545  A
C867        C868   1.414       .  A
C868        C874   1.410   1_545  A
C868        C869   1.416       .  A
C869        C871   1.415       .  A
C869        C870   1.408       .  A
C870        C878   1.400       .  A
C871        C880   1.415       .  A
C871        C872   1.405       .  A
C872        C873   1.403   1_545  A
C872        H883   1.083       .  S
C873        C874   1.405       .  A
C873        H884   1.083       .  S
C874        C875   1.407       .  A
C875        C876   1.409       .  A
C875        H885   1.085       .  S
C876        C877   1.404       .  A
C877        H886   1.085       .  S
C878        C879   1.412       .  A
C878        H887   1.083       .  S
C879        C880   1.409       .  A
C880        H888   1.084       .  S
C889        C890   1.397       .  A
C889        C894   1.402       .  A
C889        H905   1.083       .  S
C890        C891   1.404       .  A
C890        H906   1.084       .  S
C891        C901   1.399       .  A
C891        C892   1.408       .  A
C892        C898   1.414       .  A
C892        C893   1.411       .  A
C893        C895   1.409       .  A
C893        C894   1.413       .  A
C894        C902   1.402       .  A
C895        C904   1.401       .  A
C895        C896   1.404       .  A
C896        C897   1.400       .  A
C896        H907   1.084       .  S
C897        C898   1.403       .  A
C897        H908   1.083       .  S
C898        C899   1.407       .  A
C899        C900   1.406       .  A
C899        H909   1.084       .  S
C900        C901   1.411       .  A
C901        H910   1.084       .  S
C902        C903   1.403       .  A
C902        H911   1.082       .  S
C903        C904   1.409       .  A
C904        H912   1.085       .  S
C913        C914   1.398       .  A
C913        C918   1.402       .  A
C913        H929   1.082       .  S
C914        C915   1.404       .  A
C914        H930   1.084       .  S
C915        C925   1.400       .  A
C915        C916   1.409       .  A
C916        C922   1.413       .  A
C916        C917   1.412       .  A
C917        C919   1.409       .  A
C917        C918   1.413       .  A
C918        C926   1.404       .  A
C919        C928   1.402       .  A
C919        C920   1.405       .  A
C920        C921   1.399       .  A
C920        H931   1.083       .  S
C921        C922   1.403       .  A
C921        H932   1.084       .  S
C922        C923   1.405       .  A
C923        C924   1.405       .  A
C923        H933   1.084       .  S
C924        C925   1.410       .  A
C925        H934   1.085       .  S
C926        C927   1.405       .  A
C926        H935   1.083       .  S
C927        C928   1.412       .  A
C928        H936   1.084       .  S
C937        C938   1.399       .  A
C937        C942   1.404       .  A
C937        H953   1.084       .  S
C938        C939   1.403       .  A
C938        H954   1.083       .  S
C939        C949   1.409   1_565  A
C939        C940   1.414       .  A
C940        C946   1.410   1_565  A
C940        C941   1.418       .  A
C941        C943   1.414       .  A
C941        C942   1.408       .  A
C942        C950   1.402       .  A
C943        C952   1.414       .  A
C943        C944   1.405       .  A
C944        C945   1.404   1_565  A
C944        H955   1.083       .  S
C945        C946   1.406       .  A
C945        H956   1.083       .  S
C946        C947   1.410       .  A
C947        C948   1.412       .  A
C947        H957   1.084       .  S
C948        C949   1.406       .  A
C949        H958   1.085       .  S
C950        C951   1.412       .  A
C950        H959   1.083       .  S
C951        C952   1.409       .  A
C952        H960   1.084       .  S
C961        C962   1.403       .  A
C961        C966   1.405       .  A
C961        H977   1.083   1_556  S
C962        C963   1.405   1_545  A
C962        H978   1.083   1_545  S
C963        C973   1.407       .  A
C963        C964   1.409   1_565  A
C964        C970   1.415       .  A
C964        C965   1.418       .  A
C965        C967   1.408       .  A
C965        C966   1.415       .  A
C966        C974   1.415   1_556  A
C967        C976   1.402       .  A
C967        C968   1.405       .  A
C968        C969   1.400       .  A
C968        H979   1.084       .  S
C969        C970   1.404       .  A
C969        H980   1.084       .  S
C970        C971   1.410   1_545  A
C971        C972   1.407       .  A
C971        H981   1.085       .  S
C972        C973   1.410       .  A
C973        H982   1.084       .  S
C974        C975   1.409       .  A
C974        H983   1.084       .  S
C975        C976   1.412   1_554  A
C976        H984   1.083       .  S
C985        C986   1.396       .  A
C985        C990   1.403       .  A
C985       H1001   1.084       .  S
C986        C987   1.402       .  A
C986       H1002   1.084       .  S
C987        C997   1.401       .  A
C987        C988   1.411       .  A
C988        C994   1.412       .  A
C988        C989   1.418       .  A
C989        C991   1.413       .  A
C989        C990   1.409       .  A
C990        C998   1.401       .  A
C991       C1000   1.417       .  A
C991        C992   1.407       .  A
C992        C993   1.406       .  A
C992       H1003   1.083       .  S
C993        C994   1.407       .  A
C993       H1004   1.083       .  S
C994        C995   1.415       .  A
C995        C996   1.412       .  A
C995       H1005   1.084       .  S
C996        C997   1.407       .  A
C997       H1006   1.084       .  S
C998        C999   1.411       .  A
C998       H1007   1.084       .  S
C999       C1000   1.413       .  A
C1000      H1008   1.084       .  S
C1009      C1010   1.407       .  A
C1009      C1014   1.406       .  A
C1009      H1025   1.083       .  S
C1010      C1011   1.407       .  A
C1010      H1026   1.083       .  S
C1011      C1021   1.417       .  A
C1011      C1012   1.412       .  A
C1012      C1018   1.411       .  A
C1012      C1013   1.420       .  A
C1013      C1015   1.409       .  A
C1013      C1014   1.413       .  A
C1014      C1022   1.418       .  A
C1015      C1024   1.401       .  A
C1015      C1016   1.403       .  A
C1016      C1017   1.398       .  A
C1016      H1027   1.084       .  S
C1017      C1018   1.403       .  A
C1017      H1028   1.084       .  S
C1018      C1019   1.404       .  A
C1019      C1020   1.410       .  A
C1019      H1029   1.084       .  S
C1020      C1021   1.413       .  A
C1021      H1030   1.084       .  S
C1022      C1023   1.413       .  A
C1022      H1031   1.084       .  S
C1023      C1024   1.412       .  A
C1024      H1032   1.084       .  S
C1033      C1034   1.396       .  A
C1033      C1038   1.403       .  A
C1033      H1049   1.084       .  S
C1034      C1035   1.402       .  A
C1034      H1050   1.081       .  S
C1035      C1045   1.402       .  A
C1035      C1036   1.413       .  A
C1036      C1042   1.409       .  A
C1036      C1037   1.408       .  A
C1037      C1039   1.414       .  A
C1037      C1038   1.409       .  A
C1038      C1046   1.396       .  A
C1039      C1048   1.401       .  A
C1039      C1040   1.402       .  A
C1040      C1041   1.397       .  A
C1040      H1051   1.084       .  S
C1041      C1042   1.403       .  A
C1041      H1052   1.084       .  S
C1042      C1043   1.397       .  A
C1043      C1044   1.408       .  A
C1043      H1053   1.085       .  S
C1044      C1045   1.404       .  A
C1045      H1054   1.082       .  S
C1046      C1047   1.406       .  A
C1046      H1055   1.085       .  S
C1047      C1048   1.404       .  A
C1048      H1056   1.084       .  S
C1057      C1058   1.398       .  A
C1057      C1062   1.404       .  A
C1057      H1073   1.084       .  S
C1058      C1059   1.403       .  A
C1058      H1074   1.084       .  S
C1059      C1069   1.403       .  A
C1059      C1060   1.413       .  A
C1060      C1066   1.408       .  A
C1060      C1061   1.406       .  A
C1061      C1063   1.413       .  A
C1061      C1062   1.408       .  A
C1062      C1070   1.397       .  A
C1063      C1072   1.398       .  A
C1063      C1064   1.400       .  A
C1064      C1065   1.393       .  A
C1064      H1075   1.079       .  S
C1065      C1066   1.401       .  A
C1065      H1076   1.084       .  S
C1066      C1067   1.391       .  A
C1067      C1068   1.407       .  A
C1067      H1077   1.084       .  S
C1068      C1069   1.406       .  A
C1069      H1078   1.084       .  S
C1070      C1071   1.409       .  A
C1070      H1079   1.085       .  S
C1071      C1072   1.402       .  A
C1072      H1080   1.084       .  S
C1081      C1082   1.403       .  A
C1081      C1086   1.405       .  A
C1081      H1097   1.083       .  S
C1082      C1083   1.405       .  A
C1082      H1098   1.083       .  S
C1083      C1093   1.411       .  A
C1083      C1084   1.412       .  A
C1084      C1090   1.409       .  A
C1084      C1085   1.414       .  A
C1085      C1087   1.411       .  A
C1085      C1086   1.412       .  A
C1086      C1094   1.409       .  A
C1087      C1096   1.400       .  A
C1087      C1088   1.402       .  A
C1088      C1089   1.397       .  A
C1088      H1099   1.084       .  S
C1089      C1090   1.403       .  A
C1089      H1100   1.084       .  S
C1090      C1091   1.399       .  A
C1091      C1092   1.411       .  A
C1091      H1101   1.084       .  S
C1092      C1093   1.411       .  A
C1093      H1102   1.084       .  S
C1094      C1095   1.408       .  A
C1094      H1103   1.084       .  S
C1095      C1096   1.408       .  A
C1096      H1104   1.085       .  S
C1105      C1106   1.404       .  A
C1105      C1110   1.405       .  A
C1105      H1121   1.083       .  S
C1106      C1107   1.406   1_455  A
C1106      H1122   1.083   1_455  S
C1107      C1117   1.409       .  A
C1107      C1108   1.409   1_655  A
C1108      C1114   1.414       .  A
C1108      C1109   1.418       .  A
C1109      C1111   1.407       .  A
C1109      C1110   1.415       .  A
C1110      C1118   1.416       .  A
C1111      C1120   1.403       .  A
C1111      C1112   1.405       .  A
C1112      C1113   1.400       .  A
C1112      H1123   1.084       .  S
C1113      C1114   1.403       .  A
C1113      H1124   1.084       .  S
C1114      C1115   1.409   1_455  A
C1115      C1116   1.406       .  A
C1115      H1125   1.085       .  S
C1116      C1117   1.411       .  A
C1117      H1126   1.084       .  S
C1118      C1119   1.410       .  A
C1118      H1127   1.084       .  S
C1119      C1120   1.415       .  A
C1120      H1128   1.083       .  S
C1129      C1130   1.402   1_455  A
C1129      C1134   1.405       .  A
C1129      H1145   1.083       .  S
C1130      C1131   1.404       .  A
C1130      H1146   1.083       .  S
C1131      C1141   1.412       .  A
C1131      C1132   1.414       .  A
C1132      C1138   1.408       .  A
C1132      C1133   1.416       .  A
C1133      C1135   1.414   1_655  A
C1133      C1134   1.410   1_655  A
C1134      C1142   1.407       .  A
C1135      C1144   1.406       .  A
C1135      C1136   1.403   1_455  A
C1136      C1137   1.398       .  A
C1136      H1147   1.084       .  S
C1137      C1138   1.404       .  A
C1137      H1148   1.084       .  S
C1138      C1139   1.401       .  A
C1139      C1140   1.412       .  A
C1139      H1149   1.083       .  S
C1140      C1141   1.409       .  A
C1141      H1150   1.084       .  S
C1142      C1143   1.408       .  A
C1142      H1151   1.084       .  S
C1143      C1144   1.405       .  A
C1144      H1152   1.085       .  S
C1153      C1154   1.405       .  A
C1153      C1158   1.406   1_554  A
C1153      H1169   1.083       .  S
C1154      C1155   1.406       .  A
C1154      H1170   1.083       .  S
C1155      C1165   1.414       .  A
C1155      C1156   1.413       .  A
C1156      C1162   1.411       .  A
C1156      C1157   1.417   1_554  A
C1157      C1159   1.410       .  A
C1157      C1158   1.412       .  A
C1158      C1166   1.415       .  A
C1159      C1168   1.402       .  A
C1159      C1160   1.404       .  A
C1160      C1161   1.397       .  A
C1160      H1171   1.084       .  S
C1161      C1162   1.402   1_556  A
C1161      H1172   1.084   1_556  S
C1162      C1163   1.400       .  A
C1163      C1164   1.407       .  A
C1163      H1173   1.085       .  S
C1164      C1165   1.411       .  A
C1165      H1174   1.084       .  S
C1166      C1167   1.413       .  A
C1166      H1175   1.084       .  S
C1167      C1168   1.412       .  A
C1168      H1176   1.084       .  S
C1177      C1178   1.398       .  A
C1177      C1182   1.404       .  A
C1177      H1193   1.083       .  S
C1178      C1179   1.402       .  A
C1178      H1194   1.084       .  S
C1179      C1189   1.406   1_455  A
C1179      C1180   1.414       .  A
C1180      C1186   1.410   1_455  A
C1180      C1181   1.417       .  A
C1181      C1183   1.415       .  A
C1181      C1182   1.408       .  A
C1182      C1190   1.402       .  A
C1183      C1192   1.415       .  A
C1183      C1184   1.405       .  A
C1184      C1185   1.404   1_455  A
C1184      H1195   1.083       .  S
C1185      C1186   1.405       .  A
C1185      H1196   1.084       .  S
C1186      C1187   1.407       .  A
C1187      C1188   1.410       .  A
C1187      H1197   1.085       .  S
C1188      C1189   1.404       .  A
C1189      H1198   1.085       .  S
C1190      C1191   1.411       .  A
C1190      H1199   1.083       .  S
C1191      C1192   1.410       .  A
C1192      H1200   1.084       .  S
C1201      C1202   1.398       .  A
C1201      C1206   1.403       .  A
C1201      H1217   1.084       .  S
C1202      C1203   1.404       .  A
C1202      H1218   1.084       .  S
C1203      C1213   1.400       .  A
C1203      C1204   1.410       .  A
C1204      C1210   1.413       .  A
C1204      C1205   1.410       .  A
C1205      C1207   1.411       .  A
C1205      C1206   1.413       .  A
C1206      C1214   1.402       .  A
C1207      C1216   1.399       .  A
C1207      C1208   1.403       .  A
C1208      C1209   1.398       .  A
C1208      H1219   1.084       .  S
C1209      C1210   1.403       .  A
C1209      H1220   1.084       .  S
C1210      C1211   1.403       .  A
C1211      C1212   1.405       .  A
C1211      H1221   1.085       .  S
C1212      C1213   1.408       .  A
C1213      H1222   1.085       .  S
C1214      C1215   1.403       .  A
C1214      H1223   1.081       .  S
C1215      C1216   1.405       .  A
C1216      H1224   1.085       .  S
C1225      C1226   1.397       .  A
C1225      C1230   1.403       .  A
C1225      H1241   1.084       .  S
C1226      C1227   1.401       .  A
C1226      H1242   1.081       .  S
C1227      C1237   1.404       .  A
C1227      C1228   1.414       .  A
C1228      C1234   1.408       .  A
C1228      C1229   1.414       .  A
C1229      C1231   1.415       .  A
C1229      C1230   1.408       .  A
C1230      C1238   1.398       .  A
C1231      C1240   1.412       .  A
C1231      C1232   1.405       .  A
C1232      C1233   1.402       .  A
C1232      H1243   1.083       .  S
C1233      C1234   1.406       .  A
C1233      H1244   1.084       .  S
C1234      C1235   1.404       .  A
C1235      C1236   1.412       .  A
C1235      H1245   1.085       .  S
C1236      C1237   1.403       .  A
C1237      H1246   1.082       .  S
C1238      C1239   1.408       .  A
C1238      H1247   1.085       .  S
C1239      C1240   1.408       .  A
C1240      H1248   1.084       .  S
C1249      C1250   1.405   1_655  A
C1249      C1254   1.405       .  A
C1249      H1265   1.083       .  S
C1250      C1251   1.406       .  A
C1250      H1266   1.083       .  S
C1251      C1261   1.409       .  A
C1251      C1252   1.409   1_455  A
C1252      C1258   1.415       .  A
C1252      C1253   1.417       .  A
C1253      C1255   1.406       .  A
C1253      C1254   1.415       .  A
C1254      C1262   1.416       .  A
C1255      C1264   1.399       .  A
C1255      C1256   1.403       .  A
C1256      C1257   1.397       .  A
C1256      H1267   1.081       .  S
C1257      C1258   1.401       .  A
C1257      H1268   1.084       .  S
C1258      C1259   1.406   1_655  A
C1259      C1260   1.403       .  A
C1259      H1269   1.085       .  S
C1260      C1261   1.411       .  A
C1261      H1270   1.084       .  S
C1262      C1263   1.410       .  A
C1262      H1271   1.084   1_554  S
C1263      C1264   1.412       .  A
C1264      H1272   1.084       .  S
C1273      C1274   1.405       .  A
C1273      C1278   1.406       .  A
C1273      H1289   1.083       .  S
C1274      C1275   1.405       .  A
C1274      H1290   1.083       .  S
C1275      C1285   1.414       .  A
C1275      C1276   1.413       .  A
C1276      C1282   1.409       .  A
C1276      C1277   1.417       .  A
C1277      C1279   1.411       .  A
C1277      C1278   1.413       .  A
C1278      C1286   1.413       .  A
C1279      C1288   1.403       .  A
C1279      C1280   1.403       .  A
C1280      C1281   1.398       .  A
C1280      H1291   1.084       .  S
C1281      C1282   1.404       .  A
C1281      H1292   1.084       .  S
C1282      C1283   1.401       .  A
C1283      C1284   1.411       .  A
C1283      H1293   1.084       .  S
C1284      C1285   1.411       .  A
C1285      H1294   1.084       .  S
C1286      C1287   1.408       .  A
C1286      H1295   1.084       .  S
C1287      C1288   1.407       .  A
C1288      H1296   1.085       .  S
C1297      C1298   1.402       .  A
C1297      C1302   1.406       .  A
C1297      H1313   1.084       .  S
C1298      C1299   1.404       .  A
C1298      H1314   1.084       .  S
C1299      C1309   1.409       .  A
C1299      C1300   1.413       .  A
C1300      C1306   1.409       .  A
C1300      C1301   1.415       .  A
C1301      C1303   1.412       .  A
C1301      C1302   1.409       .  A
C1302      C1310   1.407       .  A
C1303      C1312   1.405       .  A
C1303      C1304   1.403       .  A
C1304      C1305   1.398       .  A
C1304      H1315   1.083       .  S
C1305      C1306   1.403       .  A
C1305      H1316   1.084       .  S
C1306      C1307   1.400       .  A
C1307      C1308   1.409       .  A
C1307      H1317   1.084       .  S
C1308      C1309   1.410       .  A
C1309      H1318   1.084       .  S
C1310      C1311   1.414       .  A
C1310      H1319   1.084       .  S
C1311      C1312   1.408       .  A
C1312      H1320   1.084       .  S
C1321      C1322   1.403       .  A
C1321      C1326   1.405       .  A
C1321      H1337   1.084       .  S
C1322      C1323   1.405       .  A
C1322      H1338   1.084       .  S
C1323      C1333   1.409       .  A
C1323      C1324   1.412       .  A
C1324      C1330   1.412       .  A
C1324      C1325   1.416       .  A
C1325      C1327   1.412       .  A
C1325      C1326   1.412       .  A
C1326      C1334   1.409       .  A
C1327      C1336   1.404       .  A
C1327      C1328   1.403       .  A
C1328      C1329   1.399       .  A
C1328      H1339   1.083       .  S
C1329      C1330   1.403       .  A
C1329      H1340   1.083       .  S
C1330      C1331   1.406       .  A
C1331      C1332   1.405       .  A
C1331      H1341   1.084       .  S
C1332      C1333   1.409       .  A
C1333      H1342   1.084       .  S
C1334      C1335   1.409       .  A
C1334      H1343   1.085       .  S
C1335      C1336   1.405       .  A
C1336      H1344   1.084       .  S
C1345      C1346   1.399       .  A
C1345      C1350   1.403       .  A
C1345      H1361   1.084       .  S
C1346      C1347   1.404       .  A
C1346      H1362   1.084       .  S
C1347      C1357   1.402       .  A
C1347      C1348   1.410       .  A
C1348      C1354   1.412       .  A
C1348      C1349   1.413       .  A
C1349      C1351   1.410       .  A
C1349      C1350   1.412       .  A
C1350      C1358   1.405       .  A
C1351      C1360   1.403       .  A
C1351      C1352   1.404       .  A
C1352      C1353   1.399       .  A
C1352      H1363   1.084       .  S
C1353      C1354   1.403       .  A
C1353      H1364   1.084       .  S
C1354      C1355   1.405       .  A
C1355      C1356   1.408       .  A
C1355      H1365   1.084       .  S
C1356      C1357   1.410       .  A
C1357      H1366   1.084       .  S
C1358      C1359   1.408       .  A
C1358      H1367   1.084       .  S
C1359      C1360   1.411       .  A
C1360      H1368   1.084       .  S
C1369      C1370   1.402       .  A
C1369      C1374   1.404       .  A
C1369      H1385   1.084       .  S
C1370      C1371   1.406       .  A
C1370      H1386   1.084       .  S
C1371      C1381   1.404   1_556  A
C1371      C1372   1.409       .  A
C1372      C1378   1.414       .  A
C1372      C1373   1.411       .  A
C1373      C1375   1.409       .  A
C1373      C1374   1.414       .  A
C1374      C1382   1.409       .  A
C1375      C1384   1.395       .  A
C1375      C1376   1.402       .  A
C1376      C1377   1.395       .  A
C1376      H1387   1.084       .  S
C1377      C1378   1.401       .  A
C1377      H1388   1.082       .  S
C1378      C1379   1.401   1_556  A
C1379      C1380   1.402       .  A
C1379      H1389   1.083       .  S
C1380      C1381   1.412       .  A
C1381      H1390   1.085       .  S
C1382      C1383   1.407       .  A
C1382      H1391   1.084       .  S
C1383      C1384   1.406       .  A
C1384      H1392   1.085       .  S
C1393      C1394   1.399       .  A
C1393      C1398   1.404       .  A
C1393      H1409   1.084       .  S
C1394      C1395   1.403       .  A
C1394      H1410   1.083       .  S
C1395      C1405   1.405       .  A
C1395      C1396   1.413       .  A
C1396      C1402   1.410       .  A
C1396      C1397   1.411       .  A
C1397      C1399   1.414       .  A
C1397      C1398   1.409       .  A
C1398      C1406   1.400       .  A
C1399      C1408   1.405       .  A
C1399      C1400   1.403       .  A
C1400      C1401   1.398       .  A
C1400      H1411   1.083       .  S
C1401      C1402   1.403       .  A
C1401      H1412   1.084       .  S
C1402      C1403   1.400       .  A
C1403      C1404   1.407       .  A
C1403      H1413   1.085       .  S
C1404      C1405   1.405       .  A
C1405      H1414   1.081       .  S
C1406      C1407   1.409       .  A
C1406      H1415   1.085       .  S
C1407      C1408   1.404       .  A
C1408      H1416   1.084       .  S
C1417      C1418   1.402       .  A
C1417      C1422   1.405       .  A
C1417      H1433   1.084       .  S
C1418      C1419   1.405       .  A
C1418      H1434   1.083       .  S
C1419      C1429   1.409       .  A
C1419      C1420   1.412       .  A
C1420      C1426   1.412       .  A
C1420      C1421   1.416       .  A
C1421      C1423   1.412       .  A
C1421      C1422   1.413       .  A
C1422      C1430   1.409       .  A
C1423      C1432   1.404       .  A
C1423      C1424   1.403       .  A
C1424      C1425   1.400       .  A
C1424      H1435   1.084       .  S
C1425      C1426   1.404       .  A
C1425      H1436   1.084       .  S
C1426      C1427   1.406       .  A
C1427      C1428   1.409       .  A
C1427      H1437   1.084       .  S
C1428      C1429   1.409       .  A
C1429      H1438   1.084       .  S
C1430      C1431   1.407       .  A
C1430      H1439   1.084       .  S
C1431      C1432   1.404       .  A
C1432      H1440   1.085       .  S
C1441      C1442   1.399       .  A
C1441      C1446   1.404       .  A
C1441      H1457   1.084   1_556  S
C1442      C1443   1.403       .  A
C1442      H1458   1.083   1_556  S
C1443      C1453   1.406       .  A
C1443      C1444   1.413       .  A
C1444      C1450   1.409       .  A
C1444      C1445   1.414       .  A
C1445      C1447   1.413       .  A
C1445      C1446   1.408       .  A
C1446      C1454   1.401       .  A
C1447      C1456   1.408       .  A
C1447      C1448   1.404       .  A
C1448      C1449   1.401       .  A
C1448      H1459   1.084       .  S
C1449      C1450   1.405       .  A
C1449      H1460   1.083       .  S
C1450      C1451   1.405       .  A
C1451      C1452   1.413       .  A
C1451      H1461   1.084       .  S
C1452      C1453   1.408       .  A
C1453      H1462   1.084       .  S
C1454      C1455   1.412       .  A
C1454      H1463   1.084       .  S
C1455      C1456   1.409       .  A
C1456      H1464   1.084       .  S
C1465      C1466   1.403       .  A
C1465      C1470   1.406       .  A
C1465      H1481   1.083       .  S
C1466      C1467   1.405       .  A
C1466      H1482   1.083       .  S
C1467      C1477   1.414       .  A
C1467      C1468   1.415       .  A
C1468      C1474   1.408       .  A
C1468      C1469   1.418       .  A
C1469      C1471   1.414       .  A
C1469      C1470   1.410       .  A
C1470      C1478   1.408       .  A
C1471      C1480   1.408       .  A
C1471      C1472   1.403       .  A
C1472      C1473   1.399       .  A
C1472      H1483   1.084       .  S
C1473      C1474   1.405       .  A
C1473      H1484   1.083       .  S
C1474      C1475   1.403       .  A
C1475      C1476   1.412       .  A
C1475      H1485   1.082       .  S
C1476      C1477   1.409       .  A
C1477      H1486   1.084       .  S
C1478      C1479   1.410       .  A
C1478      H1487   1.085       .  S
C1479      C1480   1.405       .  A
C1480      H1488   1.085       .  S
C1489      C1490   1.402       .  A
C1489      C1494   1.404       .  A
C1489      H1505   1.084       .  S
C1490      C1491   1.405       .  A
C1490      H1506   1.083       .  S
C1491      C1501   1.408       .  A
C1491      C1492   1.410       .  A
C1492      C1498   1.413   1_554  A
C1492      C1493   1.416       .  A
C1493      C1495   1.410       .  A
C1493      C1494   1.413       .  A
C1494      C1502   1.409       .  A
C1495      C1504   1.404       .  A
C1495      C1496   1.404       .  A
C1496      C1497   1.400   1_554  A
C1496      H1507   1.083       .  S
C1497      C1498   1.404       .  A
C1497      H1508   1.083       .  S
C1498      C1499   1.408       .  A
C1499      C1500   1.405       .  A
C1499      H1509   1.085       .  S
C1500      C1501   1.410   1_556  A
C1501      H1510   1.085       .  S
C1502      C1503   1.408       .  A
C1502      H1511   1.084       .  S
C1503      C1504   1.410       .  A
C1504      H1512   1.083       .  S
C1513      C1514   1.403       .  A
C1513      C1518   1.405       .  A
C1513      H1529   1.084       .  S
C1514      C1515   1.406       .  A
C1514      H1530   1.084       .  S
C1515      C1525   1.409       .  A
C1515      C1516   1.411       .  A
C1516      C1522   1.412       .  A
C1516      C1517   1.418       .  A
C1517      C1519   1.412       .  A
C1517      C1518   1.413       .  A
C1518      C1526   1.410       .  A
C1519      C1528   1.408       .  A
C1519      C1520   1.404       .  A
C1520      C1521   1.401       .  A
C1520      H1531   1.083       .  S
C1521      C1522   1.404       .  A
C1521      H1532   1.083       .  S
C1522      C1523   1.408       .  A
C1523      C1524   1.407       .  A
C1523      H1533   1.084       .  S
C1524      C1525   1.411       .  A
C1525      H1534   1.084       .  S
C1526      C1527   1.408       .  A
C1526      H1535   1.085       .  S
C1527      C1528   1.406       .  A
C1528      H1536   1.084       .  S
C1537      C1538   1.400       .  A
C1537      C1542   1.404       .  A
C1537      H1553   1.084       .  S
C1538      C1539   1.404       .  A
C1538      H1554   1.084       .  S
C1539      C1549   1.405       .  A
C1539      C1540   1.411       .  A
C1540      C1546   1.412       .  A
C1540      C1541   1.413       .  A
C1541      C1543   1.411       .  A
C1541      C1542   1.412       .  A
C1542      C1550   1.405       .  A
C1543      C1552   1.403       .  A
C1543      C1544   1.404       .  A
C1544      C1545   1.399       .  A
C1544      H1555   1.084       .  S
C1545      C1546   1.403       .  A
C1545      H1556   1.084       .  S
C1546      C1547   1.404       .  A
C1547      C1548   1.406       .  A
C1547      H1557   1.084       .  S
C1548      C1549   1.408       .  A
C1549      H1558   1.084       .  S
C1550      C1551   1.409       .  A
C1550      H1559   1.084       .  S
C1551      C1552   1.409       .  A
C1552      H1560   1.084       .  S
C1561      C1562   1.398       .  A
C1561      C1566   1.404       .  A
C1561      H1577   1.084       .  S
C1562      C1563   1.403       .  A
C1562      H1578   1.084       .  S
C1563      C1573   1.404       .  A
C1563      C1564   1.414       .  A
C1564      C1570   1.409       .  A
C1564      C1565   1.409       .  A
C1565      C1567   1.413       .  A
C1565      C1566   1.409       .  A
C1566      C1574   1.399       .  A
C1567      C1576   1.401       .  A
C1567      C1568   1.402       .  A
C1568      C1569   1.396       .  A
C1568      H1579   1.082       .  S
C1569      C1570   1.403       .  A
C1569      H1580   1.084       .  S
C1570      C1571   1.396       .  A
C1571      C1572   1.408       .  A
C1571      H1581   1.085       .  S
C1572      C1573   1.403       .  A
C1573      H1582   1.084       .  S
C1574      C1575   1.408       .  A
C1574      H1583   1.085       .  S
C1575      C1576   1.402       .  A
C1576      H1584   1.081       .  S
C1585      C1586   1.401       .  A
C1585      C1590   1.405       .  A
C1585      H1601   1.083       .  S
C1586      C1587   1.404       .  A
C1586      H1602   1.084       .  S
C1587      C1597   1.408       .  A
C1587      C1588   1.414       .  A
C1588      C1594   1.409       .  A
C1588      C1589   1.412       .  A
C1589      C1591   1.414       .  A
C1589      C1590   1.409       .  A
C1590      C1598   1.404       .  A
C1591      C1600   1.403       .  A
C1591      C1592   1.402       .  A
C1592      C1593   1.397       .  A
C1592      H1603   1.082       .  S
C1593      C1594   1.403       .  A
C1593      H1604   1.084       .  S
C1594      C1595   1.397       .  A
C1595      C1596   1.409       .  A
C1595      H1605   1.085       .  S
C1596      C1597   1.406       .  A
C1597      H1606   1.084       .  S
C1598      C1599   1.410       .  A
C1598      H1607   1.085       .  S
C1599      C1600   1.403       .  A
C1600      H1608   1.083       .  S
C1609      C1610   1.401       .  A
C1609      C1614   1.404       .  A
C1609      H1625   1.084       .  S
C1610      C1611   1.405       .  A
C1610      H1626   1.083       .  S
C1611      C1621   1.407       .  A
C1611      C1612   1.409       .  A
C1612      C1618   1.414       .  A
C1612      C1613   1.420       .  A
C1613      C1615   1.410       .  A
C1613      C1614   1.414       .  A
C1614      C1622   1.411       .  A
C1615      C1624   1.410       .  A
C1615      C1616   1.406       .  A
C1616      C1617   1.403       .  A
C1616      H1627   1.083       .  S
C1617      C1618   1.405       .  A
C1617      H1628   1.083       .  S
C1618      C1619   1.414       .  A
C1619      C1620   1.410       .  A
C1619      H1629   1.084       .  S
C1620      C1621   1.414       .  A
C1621      H1630   1.083       .  S
C1622      C1623   1.407       .  A
C1622      H1631   1.085       .  S
C1623      C1624   1.412       .  A
C1624      H1632   1.084       .  S
C1633      C1634   1.400       .  A
C1633      C1638   1.405       .  A
C1633      H1649   1.084       .  S
C1634      C1635   1.403       .  A
C1634      H1650   1.084       .  S
C1635      C1645   1.411       .  A
C1635      C1636   1.415       .  A
C1636      C1642   1.409       .  A
C1636      C1637   1.421       .  A
C1637      C1639   1.415       .  A
C1637      C1638   1.407       .  A
C1638      C1646   1.404       .  A
C1639      C1648   1.419       .  A
C1639      C1640   1.405       .  A
C1640      C1641   1.405       .  A
C1640      H1651   1.083       .  S
C1641      C1642   1.407       .  A
C1641      H1652   1.083       .  S
C1642      C1643   1.411       .  A
C1643      C1644   1.415       .  A
C1643      H1653   1.084       .  S
C1644      C1645   1.406       .  A
C1645      H1654   1.085       .  S
C1646      C1647   1.415       .  A
C1646      H1655   1.082       .  S
C1647      C1648   1.410       .  A
C1648      H1656   1.084       .  S
