geometry optimzed in LAMMPS
_audit_creation_date              2020-12-01 
_audit_creation_method            'lammps2cif' 
_symmetry_space_group_name_H-M    'P1' 
_symmetry_Int_Tables_number       1 
_symmetry_cell_setting            triclinic 
loop_ 
_symmetry_equiv_pos_as_xyz 
  x,y,z 
_cell_length_a                    29.4372978 
_cell_length_b                    28.86099881673681 
_cell_length_c                    81.02926512646934 
_cell_angle_alpha                 89.65777689651948 
_cell_angle_beta                  90.04544425012338 
_cell_angle_gamma                 121.57507308164112 
loop_ 
_atom_site_label 
_atom_site_type_symbol 
_atom_site_fract_x 
_atom_site_fract_y 
_atom_site_fract_z 
_atom_site_charge 
Zn1        Zn  0.19636457  0.40740823  0.37104602     1.49700
Zn2        Zn  0.20148086  0.29779114  0.37134595     1.49400
Zn3        Zn  0.16240284  0.33160778  0.40161440     1.49100
Zn4        Zn  0.08894446  0.28939570  0.37061300     1.49500
O5          O  0.16233032  0.33161703  0.37824317    -1.83300
O6          O  0.25864944  0.42594812  0.35658407    -0.73900
O7          O  0.23368854  0.27911941  0.39083438    -0.73700
O8          O  0.20462969  0.40392784  0.41107104    -0.73200
O9          O  0.25537760  0.34720992  0.35479737    -0.73900
O10         O  0.21897264  0.46074772  0.39038886    -0.73500
O11         O  0.19002577  0.28965496  0.41135196    -0.74100
O12         O  0.03564013  0.25914116  0.38962290    -0.73500
O13         O  0.15635517  0.23261932  0.35704852    -0.74200
O14         O  0.09160698  0.30153643  0.41035848    -0.73600
O15         O  0.08101786  0.23256579  0.35489859    -0.74100
O16         O  0.07372702  0.33417105  0.35533547    -0.74000
O17         O  0.14930654  0.41473460  0.35451049    -0.73800
C18         C  0.27236587  0.39545731  0.34979491     0.78000
C19         C  0.22105661  0.27515928  0.40607702     0.78500
C20         C  0.22206492  0.45150759  0.40566331     0.77400
C21         C  0.04494046  0.27188588  0.40482638     0.77800
C22         C  0.11155945  0.21632049  0.35019865     0.78900
C23         C  0.10287045  0.38126533  0.34900657     0.78000
Zn24       Zn  0.41877004  0.45765848  0.25392787     1.49700
Zn25       Zn  0.03196216  0.07157243  0.25362284     1.49400
Zn26       Zn  0.49481319  0.49424974  0.28160043     1.49100
Zn27       Zn  0.02938275  0.45877337  0.25363776     1.49500
O28         O  0.49332432  0.49572197  0.25886572    -1.83300
O29         O  0.40639220  0.00611623  0.23933923    -0.73900
O30         O  0.05405703  0.11559681  0.27537862    -0.73700
O31         O  0.43717311  0.49984705  0.29111399    -0.73200
O32         O  0.48441846  0.08492791  0.23875783    -0.73900
O33         O  0.37386145  0.43681426  0.27533904    -0.73500
O34         O  0.06186715  0.05522009  0.28991692    -0.74100
O35         O  0.05464382  0.43815929  0.27477344    -0.73500
O36         O  0.09480203  0.08702171  0.23927816    -0.74200
O37         O  0.98799088  0.42729216  0.29012552    -0.73600
O38         O  0.08961439  0.00711540  0.23845084    -0.74100
O39         O  0.47925578  0.39495255  0.23981558    -0.74000
O40         O  0.40306271  0.39428936  0.23947974    -0.73800
C41         C  0.43644342  0.05438031  0.23379045     0.78000
C42         C  0.06751150  0.10166464  0.28868147     0.78500
C43         C  0.38896175  0.46285995  0.28895098     0.77400
C44         C  0.02836254  0.42314837  0.28830912     0.77800
C45         C  0.11034546  0.05630405  0.23366269     0.78900
C46         C  0.43198875  0.37619311  0.23448317     0.78000
C47         C  0.16798744  0.33941853  0.81226111     0.46300
H48         H  0.16742687  0.33913178  0.82595617    -0.02700
C49         C  0.16933977  0.33998280  0.78016934     0.46400
H50         H  0.17022829  0.34038934  0.76642493    -0.02700
C51         C  0.14204825  0.37053378  0.80411729    -0.16400
C52         C  0.22615457  0.36726668  0.80451999    -0.16200
C53         C  0.13653793  0.28045686  0.80436026    -0.16500
C54         C  0.14408979  0.36962354  0.78720362    -0.16500
C55         C  0.22433397  0.36611966  0.78763009    -0.16100
C56         C  0.13813170  0.28318170  0.78740896    -0.16400
C57         C  0.50128832  0.50067682  0.82492095     0.46300
H58         H  0.50192594  0.50179003  0.81122748    -0.02700
C59         C  0.49974247  0.49805972  0.85695987     0.46400
H60         H  0.49883955  0.49726560  0.87069777    -0.02700
C61         C  0.03386472  0.05916981  0.83315395    -0.16400
C62         C  0.44320532  0.47381191  0.83264567    -0.16200
C63         C  0.02581711  0.46771678  0.83277694    -0.16500
C64         C  0.03240368  0.05512292  0.85007335    -0.16500
C65         C  0.44501629  0.47406819  0.84953605    -0.16100
C66         C  0.02341976  0.46723088  0.84974479    -0.16400
C67         C  0.16780905  0.33252118  0.52392838     0.46300
H68         H  0.16772998  0.33127954  0.53765971    -0.02700
C69         C  0.16725756  0.33464014  0.49187478     0.46400
H70         H  0.16717618  0.33563894  0.47818144    -0.02700
C71         C  0.19835436  0.38955833  0.51694570    -0.16400
C72         C  0.19250619  0.30324725  0.51639494    -0.16200
C73         C  0.11242642  0.30682334  0.51686399    -0.16500
C74         C  0.19897984  0.39299412  0.50002506    -0.16500
C75         C  0.19378991  0.30354265  0.49949829    -0.16100
C76         C  0.10954211  0.30645726  0.49995165    -0.16400
C77         C  0.33390986  0.17245078  0.48034133     0.46300
H78         H  0.33396076  0.17158006  0.49403617    -0.02700
C79         C  0.33327294  0.17413539  0.44827286     0.46400
H80         H  0.33348696  0.17514963  0.43453547    -0.02700
C81         C  0.30897751  0.20499318  0.47267147    -0.16400
C82         C  0.39148367  0.19910917  0.47229363    -0.16200
C83         C  0.30074725  0.11403765  0.47222213    -0.16500
C84         C  0.31071394  0.20558121  0.45577547    -0.16500
C85         C  0.38834356  0.19788734  0.45541130    -0.16100
C86         C  0.30086757  0.11719395  0.45526921    -0.16400
Zn87       Zn  0.33511867  0.17196394  0.57052448     1.49700
Zn88       Zn  0.40794717  0.21342326  0.60103676     1.49400
Zn89       Zn  0.29191094  0.19931826  0.60044641     1.49100
Zn90       Zn  0.30345982  0.09501027  0.60087854     1.49500
O91         O  0.33475900  0.16984968  0.59380074    -1.83300
O92         O  0.40486160  0.19449682  0.56152930    -0.73900
O93         O  0.41351515  0.26883297  0.61683809    -0.73700
O94         O  0.26294469  0.22120720  0.58099318    -0.73200
O95         O  0.46011848  0.24362603  0.58170393    -0.73900
O96         O  0.31483183  0.22128886  0.56114448    -0.73500
O97         O  0.33414090  0.26101864  0.61577239    -0.74100
O98         O  0.24441836  0.07601493  0.61678456    -0.73500
O99         O  0.42575242  0.16981655  0.61598223    -0.74200
O100        O  0.23498975  0.14762947  0.61584911    -0.73600
O101        O  0.35398286  0.08657363  0.61535984    -0.74100
O102        O  0.27759325  0.04414596  0.58138618    -0.74000
O103        O  0.28623631  0.10077232  0.56120150    -0.73800
C104        C  0.45140193  0.22711186  0.56679402     0.78000
C105        C  0.37997147  0.28035065  0.62220634     0.78500
C106        C  0.28018571  0.23130257  0.56616398     0.77400
C107        C  0.22426040  0.10260041  0.62220919     0.77800
C108        C  0.39944163  0.12103655  0.62126449     0.78900
C109        C  0.27081207  0.05340227  0.56644718     0.78000
Zn110      Zn  0.00241790  0.00318009  0.68938481     1.49700
Zn111      Zn  0.46295725  0.42714670  0.71790410     1.49400
Zn112      Zn  0.07580657  0.04091860  0.71731685     1.49100
Zn113      Zn  0.46634786  0.04049440  0.71665472     1.49500
O114        O  0.00187734  0.00272454  0.71212940    -1.83300
O115        O  0.43546979  0.44251597  0.68091731    -0.73900
O116        O  0.01059465  0.41229062  0.73195284    -0.73700
O117        O  0.12108489  0.06311265  0.69611234    -0.73200
O118        O  0.43733699  0.38102137  0.69685777    -0.73900
O119        O  0.06021150  0.99541414  0.68102041    -0.73500
O120        O  0.08822068  0.49141216  0.73134288    -0.74100
O121        O  0.01556267  0.10502932  0.73042933    -0.73500
O122        O  0.40250079  0.41441229  0.73264016    -0.74200
O123        O  0.09044642  0.10336937  0.73193429    -0.73600
O124        O  0.40480762  0.49283174  0.73161268    -0.74100
O125        O  0.44378898  0.06067417  0.69507749    -0.74000
O126        O  0.51122248  0.07069368  0.68020196    -0.73800
C127        C  0.42536232  0.39463411  0.68324488     0.78000
C128        C  0.05893880  0.44266640  0.73655996     0.78500
C129        C  0.10744761  0.03489551  0.68291386     0.77400
C130        C  0.06205889  0.12279366  0.73627069     0.77800
C131        C  0.38567363  0.44493130  0.73737682     0.78900
C132        C  0.47105646  0.07536508  0.68173743     0.78000
C133        C  0.32816298  0.16082178  0.15843682     0.46300
H134        H  0.32793052  0.16132025  0.14474141    -0.02700
C135        C  0.32866196  0.15983616  0.19054067     0.46400
H136        H  0.32907549  0.15960486  0.20428111    -0.02700
C137        C  0.27051852  0.13318831  0.16654030    -0.16400
C138        C  0.35438869  0.12951244  0.16617909    -0.16200
C139        C  0.35998791  0.21955023  0.16635314    -0.16500
C140        C  0.27301586  0.13399776  0.18347833    -0.16500
C141        C  0.35295101  0.12961793  0.18309569    -0.16100
C142        C  0.35936122  0.21669512  0.18324988    -0.16400
C143        C  0.49681585  0.50148961  0.11402673     0.46300
H144        H  0.49678696  0.50196723  0.10028367    -0.02700
C145        C  0.49650160  0.00002412  0.14611415     0.46400
H146        H  0.49629352  0.99922312  0.15980902    -0.02700
C147        C  0.47165798  0.03085397  0.12140043    -0.15800
C148        C  0.46694925  0.44452557  0.12121461    -0.16200
C149        C  0.05246384  0.02827923  0.12123902    -0.16500
C150        C  0.46972758  0.03072173  0.13830547    -0.16500
C151        C  0.46565279  0.44137671  0.13810496    -0.16100
C152        C  0.05445150  0.02857536  0.13817452    -0.16400
Zn153      Zn  0.13746355  0.26000655  0.93479122     1.49700
Zn154      Zn  0.16840547  0.33428121  0.90374535     1.49400
Zn155      Zn  0.12576586  0.36443026  0.93362516     1.49100
Zn156      Zn  0.24229087  0.37953022  0.93415286     1.49500
O157        O  0.16856911  0.33462517  0.92706318    -1.83300
O158        O  0.11575054  0.20643574  0.91583627    -0.73900
O159        O  0.14258875  0.37802750  0.89369061    -0.73700
O160        O  0.06697988  0.31201454  0.94852629    -0.73200
O161        O  0.12382547  0.26157698  0.89527100    -0.73900
O162        O  0.07534750  0.23987195  0.94956131    -0.73500
O163        O  0.09874662  0.38844423  0.91413652    -0.74100
O164        O  0.24931912  0.43765810  0.94905745    -0.73500
O165        O  0.23863827  0.36106579  0.89446859    -0.74200
O166        O  0.16800988  0.42522233  0.94924979    -0.73600
O167        O  0.29450225  0.40843865  0.91472909    -0.74100
O168        O  0.25960581  0.33812043  0.95029847    -0.74000
O169        O  0.18633625  0.25573984  0.95096769    -0.73800
C170        C  0.10941915  0.21475074  0.90075618     0.78000
C171        C  0.11228756  0.39351451  0.89896613     0.78500
C172        C  0.05451348  0.26616382  0.95469709     0.77400
C173        C  0.21504996  0.44727150  0.95496939     0.77800
C174        C  0.28527787  0.39324644  0.89969746     0.78900
C175        C  0.23187375  0.29085967  0.95665460     0.78000
Zn176      Zn  0.32992944  0.16563532  0.02294552     1.49700
Zn177      Zn  0.40692583  0.20256619  0.05050864     1.49400
Zn178      Zn  0.29789076  0.20344899  0.05145627     1.49100
Zn179      Zn  0.29277857  0.08969765  0.05139989     1.49500
O180        O  0.33235392  0.16538514  0.04573678    -1.83300
O181        O  0.38815552  0.16082714  0.01312081    -0.73900
O182        O  0.42459159  0.26582683  0.06527517    -0.73700
O183        O  0.27340883  0.22652722  0.03093570    -0.73200
O184        O  0.45054276  0.22509181  0.02891883    -0.73900
O185        O  0.33544526  0.23196733  0.01427525    -0.73500
O186        O  0.34914508  0.26645271  0.06503103    -0.74100
O187        O  0.23028585  0.07554099  0.06557999    -0.73500
O188        O  0.41892334  0.15258305  0.06461184    -0.74200
O189        O  0.23756511  0.15634881  0.06673231    -0.73600
O190        O  0.33932519  0.07581832  0.06623098    -0.74100
O191        O  0.27076279  0.04421730  0.03013328    -0.74000
O192        O  0.26258960  0.10370753  0.01519694    -0.73800
C193        C  0.43577000  0.19929773  0.01527573     0.78000
C194        C  0.39639767  0.28476705  0.07023666     0.78500
C195        C  0.29803076  0.24022173  0.01712769     0.77400
C196        C  0.21572263  0.10689130  0.07132649     0.77800
C197        C  0.38799630  0.10510465  0.07060945     0.78900
C198        C  0.25695292  0.05736177  0.01678631     0.78000
C199        C  0.21165998  0.23962753  0.98312377    -0.20500
C200        C  0.24993796  0.27852232  0.97216796    -0.08500
C201        C  0.30349623  0.30934320  0.97721208     0.30400
C202        C  0.31851769  0.29941545  0.99255530    -0.20500
C203        C  0.28033569  0.25984707  0.00329972    -0.08500
C204        C  0.22656928  0.23062944  0.99860499     0.30400
F205        F  0.18899589  0.19079176  0.00848163    -0.19000
H206        H  0.16990756  0.21633320  0.97977224     0.18700
H207        H  0.36032416  0.32149605  0.99587365     0.18700
F208        F  0.34156477  0.34806995  0.96720096    -0.19000
C209        C  0.26027172  0.47379952  0.98206983    -0.20500
C210        C  0.22751718  0.47837722  0.97035181    -0.08500
C211        C  0.20092000  0.00483408  0.97466583     0.30400
C212        C  0.20789181  0.02747596  0.99031779    -0.20500
C213        C  0.24066817  0.02297524  0.00203662    -0.08500
C214        C  0.26637923  0.49543002  0.99784547     0.30400
F215        F  0.29983538  0.49193621  0.00861655    -0.19000
H216        H  0.28024385  0.45224452  0.97915169     0.18700
H217        H  0.18858079  0.04971937  0.99318552     0.18700
F218        F  0.16868540  0.00962629  0.96370536    -0.19000
C219        C  0.51819509  0.28518501  0.97961148    -0.20500
C220        C  0.02073627  0.24684173  0.96964462    -0.08500
C221        C  0.99805940  0.19312515  0.97551173     0.30400
C222        C  0.97271193  0.17830051  0.99090004    -0.20500
C223        C  0.47114869  0.21702994  0.00087481    -0.08500
C224        C  0.49405838  0.27061553  0.99512059     0.30400
F225        F  0.49054990  0.30818971  0.00410755    -0.19000
H226        H  0.53608232  0.32705218  0.97558693     0.18700
H227        H  0.95364337  0.13635704  0.99497595     0.18700
F228        F  0.00001600  0.15490519  0.96638801    -0.19000
C229        C  0.46977836  0.36878491  0.10774250    -0.20500
C230        C  0.44494589  0.39862318  0.10971554    -0.08500
C231        C  0.40592775  0.39216515  0.09848803     0.30400
C232        C  0.39181390  0.35636744  0.08540492    -0.20500
C233        C  0.41664232  0.32653544  0.08317715    -0.08500
C234        C  0.45587005  0.33287401  0.09451984     0.30400
F235        F  0.48005033  0.30392867  0.09303094    -0.19000
H236        H  0.50109497  0.37472791  0.11611361     0.18700
H237        H  0.36128732  0.35205589  0.07696491     0.18700
F238        F  0.38210477  0.42136880  0.10002510    -0.19000
C239        C  0.46398001  0.11062727  0.08592547    -0.20500
C240        C  0.40867323  0.08541985  0.08375930    -0.08500
C241        C  0.37405396  0.04509474  0.09516246     0.30400
C242        C  0.39478558  0.03012935  0.10826129    -0.20500
C243        C  0.44997279  0.05455926  0.11004585    -0.08500
C244        C  0.48445520  0.09506756  0.09885257     0.30400
F245        F  0.03806438  0.11883759  0.10026919    -0.19000
H246        H  0.49154824  0.14212209  0.07748556     0.18700
H247        H  0.36780277  0.99796281  0.11663194     0.18700
F248        F  0.32032125  0.02045671  0.09379037    -0.19000
C249        C  0.09775940  0.01228847  0.09823657    -0.20500
C250        C  0.09807996  0.04852645  0.10976410    -0.08500
C251        C  0.13732864  0.10395617  0.10869482     0.30400
C252        C  0.17517166  0.12274839  0.09600970    -0.20500
C253        C  0.17445698  0.08647009  0.08430626    -0.08500
C254        C  0.13570835  0.03084407  0.08566390     0.30400
F255        F  0.13333426  0.99466365  0.07453986    -0.19000
H256        H  0.06721826  0.96950480  0.09879328     0.18700
H257        H  0.20515628  0.16573547  0.09535454     0.18700
F258        F  0.13771625  0.14003975  0.11944698    -0.19000
C259        C  0.43124649  0.13541169  0.14982253    -0.20500
C260        C  0.38102648  0.10325338  0.15739633    -0.08500
C261        C  0.36221146  0.04729851  0.15968414     0.30400
C262        C  0.39246230  0.02460122  0.15452545    -0.20500
C263        C  0.44276071  0.05680465  0.14699515    -0.08500
C264        C  0.46147821  0.11271644  0.14465815     0.30400
F265        F  0.50930831  0.14560257  0.13722027    -0.19000
H266        H  0.44792563  0.17870626  0.14833745     0.18700
H267        H  0.37585523  0.48135672  0.15614951     0.18700
F268        F  0.31429804  0.01439072  0.16707273    -0.19000
C269        C  0.44203236  0.31319044  0.16095646    -0.20500
C270        C  0.38773060  0.27463074  0.15769175    -0.08500
C271        C  0.35883815  0.29290877  0.14882203     0.30400
C272        C  0.38362499  0.34759591  0.14336144    -0.20500
C273        C  0.43788325  0.38617893  0.14667834    -0.08500
C274        C  0.46677610  0.36789062  0.15552920     0.30400
F275        F  0.01952567  0.40241778  0.15844183    -0.19000
H276        H  0.46533561  0.30089856  0.16798771     0.18700
H277        H  0.36037064  0.35989466  0.13630410     0.18700
F278        F  0.30607422  0.25842270  0.14593231    -0.19000
C279        C  0.18135846  0.12625903  0.16236866    -0.20500
C280        C  0.21698638  0.10932858  0.15792369    -0.08500
C281        C  0.19704079  0.06336390  0.14777670     0.30400
C282        C  0.14338281  0.03525055  0.14245170    -0.20500
C283        C  0.10777326  0.05220511  0.14688746    -0.08500
C284        C  0.12770141  0.09815748  0.15703350     0.30400
F285        F  0.09585774  0.11715458  0.16132251    -0.19000
H286        H  0.19506644  0.16117664  0.17029405     0.18700
H287        H  0.12968636  0.00037236  0.13450812     0.18700
F288        F  0.22888419  0.04439698  0.14345600    -0.19000
C289        C  0.47212278  0.14125202  0.64130233    -0.20500
C290        C  0.41934032  0.10641784  0.63595792    -0.08500
C291        C  0.38364216  0.06289456  0.64629538     0.30400
C292        C  0.40016376  0.05563594  0.66172934    -0.20500
C293        C  0.45266109  0.09051978  0.66700964    -0.08500
C294        C  0.48890743  0.13293913  0.65658620     0.30400
F295        F  0.04036360  0.16654694  0.66125977    -0.19000
H296        H  0.50030091  0.17539104  0.63372941     0.18700
H297        H  0.37230547  0.02144771  0.66935767     0.18700
F298        F  0.33223742  0.02816288  0.64179162    -0.19000
C299        C  0.42091628  0.30301066  0.64993419    -0.20500
C300        C  0.39162884  0.31077495  0.63768160    -0.08500
C301        C  0.36781342  0.34074564  0.64140865     0.30400
C302        C  0.37565248  0.36483690  0.65686836    -0.20500
C303        C  0.40608587  0.35817846  0.66897659    -0.08500
C304        C  0.42770596  0.32601016  0.66550982     0.30400
F305        F  0.45824415  0.31964920  0.67676743    -0.19000
H306        H  0.43803281  0.27838809  0.64752835     0.18700
H307        H  0.35932148  0.39019450  0.65922963     0.18700
F308        F  0.33819458  0.34790465  0.62999767    -0.19000
C309        C  0.16148996  0.02896390  0.64141682    -0.20500
C310        C  0.19341933  0.08445313  0.63761392    -0.08500
C311        C  0.20198699  0.12312890  0.64969036     0.30400
C312        C  0.17742608  0.10639479  0.66509194    -0.20500
C313        C  0.14333286  0.05101126  0.66861677    -0.08500
C314        C  0.13601873  0.01222838  0.65672319     0.30400
F315        F  0.10339317  0.95818201  0.65978635    -0.19000
H316        H  0.15578741  0.99865158  0.63246270     0.18700
H317        H  0.18303216  0.13688505  0.67396341     0.18700
F318        F  0.23522493  0.17718855  0.64677082    -0.19000
C319        C  0.20461175  0.47290666  0.52813331    -0.20500
C320        C  0.22054139  0.43494326  0.52869090    -0.08500
C321        C  0.25058709  0.43464432  0.54214908     0.30400
C322        C  0.26385038  0.47125808  0.55494884    -0.20500
C323        C  0.24873185  0.00978385  0.55434270    -0.08500
C324        C  0.21910938  0.01067227  0.54081944     0.30400
F325        F  0.20394997  0.04768764  0.53990729    -0.19000
H326        H  0.17977047  0.47237823  0.51818674     0.18700
H327        H  0.28775670  0.47091365  0.56506997     0.18700
F328        F  0.26701096  0.39870911  0.54297158    -0.19000
C329        C  0.07089290  0.32159128  0.54106213    -0.20500
C330        C  0.06796708  0.28638182  0.52863816    -0.08500
C331        C  0.02850006  0.23108989  0.52938385     0.30400
C332        C  0.99151964  0.21170180  0.54224120    -0.20500
C333        C  0.49463270  0.24692525  0.55472923    -0.08500
C334        C  0.03482756  0.30200057  0.55413891     0.30400
F335        F  0.53805053  0.33709880  0.56582756    -0.19000
H336        H  0.10193980  0.36426563  0.54076013     0.18700
H337        H  0.96050820  0.16900727  0.54252615     0.18700
F338        F  0.02700191  0.19570647  0.51811877    -0.19000
C339        C  0.18163367  0.24271886  0.53966755    -0.20500
C340        C  0.21523231  0.28048364  0.52768960    -0.08500
C341        C  0.27059950  0.30422369  0.52894667     0.30400
C342        C  0.29174496  0.28912814  0.54184391    -0.20500
C343        C  0.25808110  0.25168787  0.55392374    -0.08500
C344        C  0.20281120  0.22855168  0.55276429     0.30400
F345        F  0.16925574  0.19101014  0.56396528    -0.19000
H346        H  0.13892882  0.22533737  0.53907658     0.18700
H347        H  0.33452008  0.30723091  0.54256061     0.18700
F348        F  0.30426787  0.34444564  0.51842804    -0.19000
C349        C  0.19660861  0.46500090  0.48256997    -0.20500
C350        C  0.22640098  0.44804303  0.49147852    -0.08500
C351        C  0.28026603  0.48773809  0.49499482     0.30400
C352        C  0.30316481  0.04228488  0.48977988    -0.20500
C353        C  0.27332851  0.05919524  0.48087048    -0.08500
C354        C  0.21934416  0.01963478  0.47750523     0.30400
F355        F  0.18870677  0.03389300  0.46900124    -0.19000
H356        H  0.15484019  0.43625055  0.48012636     0.18700
H357        H  0.34495680  0.07103317  0.49219737     0.18700
F358        F  0.31072639  0.47365909  0.50368847    -0.19000
C359        C  0.48153094  0.20732204  0.47624501    -0.20500
C360        C  0.44564933  0.22391314  0.48073789    -0.08500
C361        C  0.46597766  0.27049745  0.49067215     0.30400
C362        C  0.01986479  0.29894501  0.49590482    -0.20500
C363        C  0.05565127  0.28223373  0.49142326    -0.08500
C364        C  0.03546660  0.23595599  0.48138639     0.30400
F365        F  0.06735537  0.21705662  0.47705511    -0.19000
H366        H  0.46776409  0.17212359  0.46843720     0.18700
H367        H  0.03365509  0.33402432  0.50377197     0.18700
F368        F  0.43429801  0.28978656  0.49485621    -0.19000
C369        C  0.20086254  0.22180638  0.49295749    -0.20500
C370        C  0.22053600  0.27781566  0.49072242    -0.08500
C371        C  0.27170967  0.31003625  0.48372661     0.30400
C372        C  0.30185506  0.28682757  0.47912923    -0.20500
C373        C  0.28221708  0.23081558  0.48139605    -0.08500
C374        C  0.23085788  0.19853888  0.48826174     0.30400
F375        F  0.20857261  0.14396273  0.48971796    -0.19000
H376        H  0.16220223  0.19604467  0.49867457     0.18700
H377        H  0.34049968  0.31258149  0.47340191     0.18700
F378        F  0.29367819  0.36451581  0.48204968    -0.19000
C379        C  0.39943228  0.48958556  0.87241351    -0.20500
C380        C  0.39967177  0.45348245  0.86093365    -0.08500
C381        C  0.36363586  0.39750519  0.86264986     0.30400
C382        C  0.32759292  0.37796898  0.87576523    -0.20500
C383        C  0.32795665  0.41400483  0.88743845    -0.08500
C384        C  0.36373377  0.47004108  0.88561800     0.30400
F385        F  0.36281323  0.50577993  0.89622165    -0.19000
H386        H  0.42795200  0.03301603  0.87142260     0.18700
H387        H  0.29949851  0.33459860  0.87690527     0.18700
F388        F  0.36523095  0.36180437  0.85219480    -0.19000
C389        C  0.09971316  0.46159420  0.86079533    -0.20500
C390        C  0.04558837  0.44452274  0.86141850    -0.08500
C391        C  0.01430220  0.41253670  0.87484581     0.30400
C392        C  0.03696812  0.39840352  0.88749161    -0.20500
C393        C  0.09082226  0.41482450  0.88677256    -0.08500
C394        C  0.12209443  0.44617096  0.87323864     0.30400
F395        F  0.17450640  0.46271405  0.87222187    -0.19000
H396        H  0.12466001  0.98747846  0.85087271     0.18700
H397        H  0.01201904  0.37314972  0.89759387     0.18700
F398        F  0.46167100  0.39500475  0.87575494    -0.19000
C399        C  0.08840328  0.09847407  0.87457444    -0.20500
C400        C  0.05600101  0.09967964  0.86203649    -0.08500
C401        C  0.03841325  0.13618356  0.86299848     0.30400
C402        C  0.05435630  0.17206437  0.87615282    -0.20500
C403        C  0.08683124  0.17099342  0.88869258    -0.08500
C404        C  0.10358675  0.13373852  0.88791814     0.30400
F405        F  0.13612251  0.13288248  0.89964170    -0.19000
H406        H  0.10102990  0.06934635  0.87413605     0.18700
H407        H  0.04135080  0.20088702  0.87657656     0.18700
F408        F  0.50429644  0.13571970  0.85163139    -0.19000
C409        C  0.29995959  0.44279087  0.77263522    -0.20500
C410        C  0.27030766  0.38731272  0.77642540    -0.08500
C411        C  0.27851584  0.35089468  0.76747869     0.30400
C412        C  0.31585474  0.36980056  0.75473514    -0.20500
C413        C  0.34496984  0.42528938  0.75054439    -0.08500
C414        C  0.33715456  0.46190286  0.75979130     0.30400
F415        F  0.36552833  0.51612681  0.75654703    -0.19000
H416        H  0.29307535  0.47099234  0.77930871     0.18700
H417        H  0.32143663  0.34082477  0.74800388     0.18700
F418        F  0.24976946  0.29688910  0.77092705    -0.19000
C419        C  0.15615065  0.43286969  0.76465107    -0.20500
C420        C  0.12148189  0.39133079  0.77549543    -0.08500
C421        C  0.06629212  0.36456897  0.77302194     0.30400
C422        C  0.04610179  0.38006457  0.75991270    -0.20500
C423        C  0.08079139  0.42257400  0.74917543    -0.08500
C424        C  0.13620097  0.44884533  0.75167909     0.30400
F425        F  0.17107725  0.98918457  0.74144813    -0.19000
H426        H  0.19890948  0.45239579  0.76612778     0.18700
H427        H  0.00331308  0.35934903  0.75831977     0.18700
F428        F  0.03221978  0.32225358  0.78288189    -0.19000
C429        C  0.11666574  0.16535089  0.76144095    -0.20500
C430        C  0.08170359  0.16412450  0.74934464    -0.08500
C431        C  0.06222792  0.19916920  0.75081459     0.30400
C432        C  0.07864250  0.23560051  0.76387667    -0.20500
C433        C  0.11395199  0.23721359  0.77580864    -0.08500
C434        C  0.13249884  0.20144712  0.77465380     0.30400
F435        F  0.16744466  0.20290418  0.78588446    -0.19000
H436        H  0.13131462  0.13794372  0.76076463     0.18700
H437        H  0.06484300  0.26370447  0.76446638     0.18700
F438        F  0.02847774  0.19932109  0.73941469    -0.19000
C439        C  0.06910240  0.36576912  0.82238609    -0.20500
C440        C  0.11483962  0.39683933  0.81258897    -0.08500
C441        C  0.12862864  0.45065656  0.80855386     0.30400
C442        C  0.09774390  0.47215465  0.81410022    -0.20500
C443        C  0.05215934  0.44114921  0.82396471    -0.08500
C444        C  0.03819380  0.38724559  0.82791877     0.30400
F445        F  0.99449042  0.35515000  0.83734576    -0.19000
H446        H  0.05626499  0.32402967  0.82537889     0.18700
H447        H  0.11072302  0.51397973  0.81117626     0.18700
F448        F  0.17262076  0.48299472  0.79927522    -0.19000
C449        C  0.31460754  0.37343677  0.80954760    -0.20500
C450        C  0.27982670  0.39210503  0.81321625    -0.08500
C451        C  0.30116531  0.44049820  0.82232294     0.30400
C452        C  0.35499275  0.46858136  0.82762831    -0.20500
C453        C  0.38975582  0.44990048  0.82389661    -0.08500
C454        C  0.36852124  0.40181913  0.81467532     0.30400
F455        F  0.39936420  0.38100598  0.81114628    -0.19000
H456        H  0.29999780  0.33677770  0.80237937     0.18700
H457        H  0.36954747  0.50493611  0.83495577     0.18700
F458        F  0.27046904  0.46161620  0.82568318    -0.19000
C459        C  0.11325833  0.15632478  0.82955001    -0.20500
C460        C  0.06146452  0.11470592  0.82467679    -0.08500
C461        C  0.03358274  0.12969742  0.81396415     0.30400
C462        C  0.05668290  0.18407503  0.80841329    -0.20500
C463        C  0.10863924  0.22554610  0.81316378    -0.08500
C464        C  0.13632601  0.21074241  0.82401423     0.30400
F465        F  0.18658265  0.24845374  0.82879575    -0.19000
H466        H  0.13592200  0.14669270  0.83791224     0.18700
H467        H  0.03399843  0.19375466  0.80007349     0.18700
F468        F  0.48310494  0.09219851  0.80932078    -0.19000
C469        C  0.35712290  0.29208349  0.19709891    -0.20500
C470        C  0.38244348  0.26297182  0.19464271    -0.08500
C471        C  0.42328518  0.27070348  0.20528776     0.30400
C472        C  0.43825991  0.30664316  0.21841867    -0.20500
C473        C  0.41231866  0.33512989  0.22127628    -0.08500
C474        C  0.37180367  0.32799113  0.21034147     0.30400
F475        F  0.34687300  0.35605329  0.21226480    -0.19000
H476        H  0.32474523  0.28547209  0.18911199     0.18700
H477        H  0.47004553  0.31187795  0.22643857     0.18700
F478        F  0.44801726  0.24259275  0.20313886    -0.19000
C479        C  0.36029339  0.04827812  0.21825733    -0.20500
C480        C  0.41562084  0.07371391  0.22053637    -0.08500
C481        C  0.45025871  0.11425769  0.20920376     0.30400
C482        C  0.42963310  0.12968947  0.19617903    -0.20500
C483        C  0.37446430  0.10542151  0.19436634    -0.08500
C484        C  0.33988561  0.06431124  0.20539639     0.30400
F485        F  0.28627469  0.04042123  0.20388882    -0.19000
H486        H  0.33269974  0.01643408  0.22660131     0.18700
H487        H  0.45670111  0.16203852  0.18787586     0.18700
F488        F  0.50395496  0.13861707  0.21057162    -0.19000
C489        C  0.22805869  0.15076247  0.20650395    -0.20500
C490        C  0.22763290  0.11424181  0.19505323    -0.08500
C491        C  0.18819585  0.05890360  0.19619704     0.30400
C492        C  0.15047961  0.04041002  0.20890837    -0.20500
C493        C  0.15133114  0.07686862  0.22056517    -0.08500
C494        C  0.19001196  0.13250250  0.21907643     0.30400
F495        F  0.19227008  0.16893189  0.23007847    -0.19000
H496        H  0.25865479  0.19350387  0.20586826     0.18700
H497        H  0.12047328  0.99744389  0.20962897     0.18700
F498        F  0.18748365  0.02256800  0.18548202    -0.19000
C499        C  0.02928391  0.36796415  0.33055772    -0.20500
C500        C  0.08411255  0.39443515  0.33378787    -0.08500
C501        C  0.12050193  0.42670199  0.32126755     0.30400
C502        C  0.10204928  0.43264836  0.30594737    -0.20500
C503        C  0.04718360  0.40720462  0.30290571    -0.08500
C504        C  0.01090340  0.37459371  0.31537014     0.30400
F505        F  0.95749971  0.34943155  0.31292943    -0.19000
H506        H  0.00051412  0.34198073  0.33982968     0.18700
H507        H  0.13071022  0.45883486  0.29668222     0.18700
F508        F  0.17389612  0.45120705  0.32361319    -0.19000
C509        C  0.10861792  0.12410710  0.31666917    -0.20500
C510        C  0.08382328  0.13546157  0.30370043    -0.08500
C511        C  0.06669095  0.17191096  0.30650593     0.30400
C512        C  0.07342153  0.19554741  0.32201399    -0.20500
C513        C  0.09808064  0.18410052  0.33495172    -0.08500
C514        C  0.11612140  0.14848219  0.33210120     0.30400
F515        F  0.14010785  0.13651751  0.34428716    -0.19000
H516        H  0.12141078  0.09544216  0.31495020     0.18700
H517        H  0.06045110  0.22405386  0.32378223     0.18700
F518        F  0.04157216  0.18315332  0.29451575    -0.19000
C519        C  0.28654424  0.37698715  0.32114517    -0.20500
C520        C  0.30280923  0.41372816  0.33433720    -0.08500
C521        C  0.34277671  0.46820925  0.33176860     0.30400
C522        C  0.36803836  0.48486629  0.31644094    -0.20500
C523        C  0.35321668  0.44768211  0.30335147    -0.08500
C524        C  0.31104715  0.39381839  0.30570919     0.30400
F525        F  0.29532455  0.35672875  0.29343650    -0.19000
H526        H  0.25423255  0.33517344  0.32274642     0.18700
H527        H  0.40057950  0.52661508  0.31497169     0.18700
F528        F  0.35856692  0.50478282  0.34420211    -0.19000
C529        C  0.29060720  0.03203341  0.44388287    -0.20500
C530        C  0.27659623  0.07146719  0.44350008    -0.08500
C531        C  0.24604686  0.07234760  0.43024092     0.30400
C532        C  0.23102506  0.53518782  0.41737649    -0.20500
C533        C  0.24442793  0.49535695  0.41787196    -0.08500
C534        C  0.27383379  0.99357512  0.43135317     0.30400
F535        F  0.28755170  0.95543541  0.43215651    -0.19000
H536        H  0.31567477  0.03186150  0.45364589     0.18700
H537        H  0.20704741  0.53615136  0.40737728     0.18700
F538        F  0.23136850  0.10970681  0.42960601    -0.19000
C539        C  0.43101628  0.17908645  0.43250843    -0.20500
C540        C  0.43245158  0.21668818  0.44373222    -0.08500
C541        C  0.46906414  0.27229276  0.44159614     0.30400
C542        C  0.50404368  0.29002076  0.42827645    -0.20500
C543        C  0.00229037  0.25256973  0.41691723    -0.08500
C544        C  0.46590690  0.19683072  0.41913337     0.30400
F545        F  0.96559667  0.15984796  0.40879737    -0.19000
H546        H  0.40206338  0.13600041  0.43399800     0.18700
H547        H  0.03286865  0.33317805  0.42682636     0.18700
F548        F  0.46936002  0.30929351  0.45193103    -0.19000
C549        C  0.29875834  0.27782474  0.41889695    -0.20500
C550        C  0.24368598  0.25587894  0.41845628    -0.08500
C551        C  0.21132418  0.22148643  0.43134826     0.30400
C552        C  0.23377098  0.20786377  0.44419967    -0.20500
C553        C  0.28877740  0.22926308  0.44452405    -0.08500
C554        C  0.32129212  0.26498929  0.43192883     0.30400
F555        F  0.37479477  0.28673945  0.43213386    -0.19000
H556        H  0.32438214  0.30589147  0.40937630     0.18700
H557        H  0.20796770  0.17875967  0.45347458     0.18700
F558        F  0.15780561  0.20002870  0.43126618    -0.19000
Zn559      Zn  0.19616090  0.90736041  0.37109538     1.49700
Zn560      Zn  0.20146878  0.79784418  0.37137814     1.49400
Zn561      Zn  0.16228273  0.83148985  0.40163219     1.49100
Zn562      Zn  0.08888042  0.78924474  0.37062825     1.49500
O563        O  0.16223169  0.83155539  0.37826578    -1.83300
O564        O  0.25852913  0.92604900  0.35664294    -0.73900
O565        O  0.23356089  0.77908188  0.39086078    -0.73700
O566        O  0.20458909  0.90375616  0.41110752    -0.73200
O567        O  0.25547647  0.84741236  0.35489422    -0.73900
O568        O  0.21858101  0.96058297  0.39046092    -0.73500
O569        O  0.18968806  0.78933615  0.41137012    -0.74100
O570        O  0.03556884  0.75921009  0.38962477    -0.73500
O571        O  0.15650108  0.73277534  0.35703375    -0.74200
O572        O  0.09152534  0.80165762  0.41036037    -0.73600
O573        O  0.08093607  0.73230786  0.35495691    -0.74100
O574        O  0.07372212  0.83391061  0.35530320    -0.74000
O575        O  0.14908661  0.91466056  0.35456250    -0.73800
C576        C  0.27239338  0.89563441  0.34988210     0.78000
C577        C  0.22080835  0.77495483  0.40609516     0.78500
C578        C  0.22180702  0.95131933  0.40572399     0.77400
C579        C  0.04486831  0.77205082  0.40482076     0.77800
C580        C  0.11161605  0.71627535  0.35022107     0.78900
C581        C  0.10275632  0.88107254  0.34900968     0.78000
Zn582      Zn  0.41868822  0.95744648  0.25399704     1.49700
Zn583      Zn  0.03207457  0.57180719  0.25360439     1.49400
Zn584      Zn  0.49490310  0.99413602  0.28164036     1.49100
Zn585      Zn  0.02934115  0.95860837  0.25364212     1.49500
O586        O  0.49326814  0.99554001  0.25890236    -1.83300
O587        O  0.40655750  0.50645369  0.23931295    -0.73900
O588        O  0.05427330  0.61582689  0.27536570    -0.73700
O589        O  0.43730752  0.99969850  0.29121838    -0.73200
O590        O  0.48458962  0.58527295  0.23875333    -0.73900
O591        O  0.37390681  0.93678401  0.27543245    -0.73500
O592        O  0.06174945  0.55528209  0.28992862    -0.74100
O593        O  0.05469801  0.93797890  0.27474205    -0.73500
O594        O  0.09483439  0.58716097  0.23924875    -0.74200
O595        O  0.98816837  0.92716006  0.29015488    -0.73600
O596        O  0.08967184  0.50725936  0.23844284    -0.74100
O597        O  0.47920331  0.89483817  0.23982201    -0.74000
O598        O  0.40290652  0.89397969  0.23958221    -0.73800
C599        C  0.43661059  0.55474545  0.23378658     0.78000
C600        C  0.06760556  0.60181331  0.28867752     0.78500
C601        C  0.38906698  0.96280135  0.28904910     0.77400
C602        C  0.02848777  0.92295686  0.28828848     0.77800
C603        C  0.11036941  0.55643105  0.23363914     0.78900
C604        C  0.43186859  0.87598011  0.23453912     0.78000
C605        C  0.16796876  0.83952066  0.81229035     0.46300
H606        H  0.16745510  0.83929249  0.82598549    -0.02700
C607        C  0.16921813  0.83996032  0.78019913     0.46400
H608        H  0.17005537  0.84030554  0.76645477    -0.02700
C609        C  0.14193225  0.87054318  0.80414110    -0.16400
C610        C  0.22612871  0.86740517  0.80452815    -0.16200
C611        C  0.13653682  0.78051465  0.80441584    -0.16500
C612        C  0.14391729  0.86956377  0.78722709    -0.16500
C613        C  0.22425503  0.86621302  0.78763525    -0.16100
C614        C  0.13809814  0.78318127  0.78746482    -0.16400
C615        C  0.50124524  0.00077105  0.82494889     0.46300
H616        H  0.50185602  0.00186208  0.81125525    -0.02700
C617        C  0.49977263  0.99821630  0.85698749     0.46400
H618        H  0.49888767  0.99743304  0.87072492    -0.02700
C619        C  0.03382083  0.55907261  0.83313560    -0.16400
C620        C  0.44318877  0.97402357  0.83268411    -0.16200
C621        C  0.02571350  0.96775739  0.83280221    -0.16500
C622        C  0.03232290  0.55497304  0.85005142    -0.16500
C623        C  0.44504061  0.97430541  0.84957465    -0.16100
C624        C  0.02334401  0.96729126  0.84977115    -0.16400
C625        C  0.16786051  0.83252817  0.52400509     0.46300
H626        H  0.16783953  0.83133489  0.53773602    -0.02700
C627        C  0.16728299  0.83461918  0.49195348     0.46400
H628        H  0.16718987  0.83561265  0.47826019    -0.02700
C629        C  0.19831672  0.88955443  0.51701718    -0.16400
C630        C  0.19262199  0.80331487  0.51647602    -0.16200
C631        C  0.11244956  0.80671440  0.51694704    -0.16500
C632        C  0.19893111  0.89297293  0.50009948    -0.16500
C633        C  0.19387724  0.80357575  0.49957760    -0.16100
C634        C  0.10957318  0.80638714  0.50003261    -0.16400
C635        C  0.33398161  0.67252091  0.48033469     0.46300
H636        H  0.33394312  0.67156215  0.49402933    -0.02700
C637        C  0.33356399  0.67440979  0.44826735     0.46400
H638        H  0.33390193  0.67551147  0.43453036    -0.02700
C639        C  0.30901615  0.70503941  0.47266433    -0.16400
C640        C  0.39161884  0.69933101  0.47232433    -0.16200
C641        C  0.30095596  0.61414456  0.47217555    -0.16500
C642        C  0.31083424  0.70569851  0.45576683    -0.16500
C643        C  0.38858376  0.69823125  0.45544469    -0.16100
C644        C  0.30120623  0.61741168  0.45522175    -0.16400
Zn645      Zn  0.33498987  0.67171501  0.57056622     1.49700
Zn646      Zn  0.40776893  0.71304878  0.60107235     1.49400
Zn647      Zn  0.29188545  0.69912365  0.60049301     1.49100
Zn648      Zn  0.30320908  0.59466489  0.60090921     1.49500
O649        O  0.33459765  0.66954035  0.59384156    -1.83300
O650        O  0.40467775  0.69404309  0.56155538    -0.73900
O651        O  0.41369858  0.76884564  0.61676936    -0.73700
O652        O  0.26298906  0.72110584  0.58105460    -0.73200
O653        O  0.45996948  0.74280769  0.58176459    -0.73900
O654        O  0.31488235  0.72120379  0.56120654    -0.73500
O655        O  0.33423299  0.76082965  0.61580285    -0.74100
O656        O  0.24404900  0.57565492  0.61677860    -0.73500
O657        O  0.42526613  0.66950005  0.61611041    -0.74200
O658        O  0.23496227  0.64748349  0.61589011    -0.73600
O659        O  0.35360311  0.58619679  0.61546784    -0.74100
O660        O  0.27751527  0.54390598  0.58137475    -0.74000
O661        O  0.28599764  0.60059953  0.56123256    -0.73800
C662        C  0.45124448  0.72641955  0.56684383     0.78000
C663        C  0.38018065  0.78035009  0.62216749     0.78500
C664        C  0.28026289  0.73125205  0.56622991     0.77400
C665        C  0.22406681  0.60237751  0.62223101     0.77800
C666        C  0.39897790  0.62074635  0.62140858     0.78900
C667        C  0.27068964  0.55322322  0.56644416     0.78000
Zn668      Zn  0.00227411  0.50321438  0.68942806     1.49700
Zn669      Zn  0.46290285  0.92718658  0.71787475     1.49400
Zn670      Zn  0.07578006  0.54092788  0.71736729     1.49100
Zn671      Zn  0.46631687  0.54040650  0.71675548     1.49500
O672        O  0.00185655  0.50268660  0.71217124    -1.83300
O673        O  0.43557209  0.94258796  0.68087997    -0.73900
O674        O  0.01046254  0.91233463  0.73196761    -0.73700
O675        O  0.12105619  0.56319266  0.69616982    -0.73200
O676        O  0.43746332  0.88109299  0.69681207    -0.73900
O677        O  0.06015673  0.49566605  0.68102166    -0.73500
O678        O  0.08815826  0.99138855  0.73133141    -0.74100
O679        O  0.01547877  0.60487979  0.73054374    -0.73500
O680        O  0.40236143  0.91449441  0.73258260    -0.74200
O681        O  0.09039184  0.60327873  0.73203050    -0.73600
O682        O  0.40470292  0.99293003  0.73152372    -0.74100
O683        O  0.44349279  0.56056441  0.69525319    -0.74000
O684        O  0.51081004  0.57067178  0.68029137    -0.73800
C685        C  0.42555065  0.89473276  0.68319208     0.78000
C686        C  0.05881645  0.94267336  0.73657135     0.78500
C687        C  0.10742263  0.53504545  0.68295757     0.77400
C688        C  0.06197081  0.62264546  0.73638391     0.77800
C689        C  0.38552639  0.94502695  0.73730288     0.78900
C690        C  0.47063404  0.57529826  0.68189328     0.78000
C691        C  0.32815420  0.66090524  0.15841019     0.46300
H692        H  0.32796708  0.66139903  0.14471460    -0.02700
C693        C  0.32854312  0.65993358  0.19051252     0.46400
H694        H  0.32890821  0.65971691  0.20425333    -0.02700
C695        C  0.27048024  0.63327619  0.16649319    -0.16400
C696        C  0.35436176  0.62959762  0.16617460    -0.16200
C697        C  0.35994801  0.71964048  0.16632658    -0.16500
C698        C  0.27292374  0.63408317  0.18343113    -0.16500
C699        C  0.35288339  0.62973514  0.18309226    -0.16100
C700        C  0.35926225  0.71678327  0.18322429    -0.16400
C701        C  0.49707454  0.00172132  0.11402080     0.46300
H702        H  0.49713380  0.00227819  0.10027784    -0.02700
C703        C  0.49644037  0.50000129  0.14612090     0.46400
H704        H  0.49631852  0.49928901  0.15981592    -0.02700
C705        C  0.47133750  0.53056074  0.12140500    -0.15800
C706        C  0.46705484  0.94471474  0.12117448    -0.16200
C707        C  0.05227925  0.52823063  0.12122077    -0.16500
C708        C  0.46953080  0.53056775  0.13830968    -0.16500
C709        C  0.46566786  0.94145808  0.13806446    -0.16100
C710        C  0.05436469  0.52861879  0.13815588    -0.16400
Zn711      Zn  0.13713884  0.75970577  0.93479437     1.49700
Zn712      Zn  0.16820822  0.83398875  0.90372136     1.49400
Zn713      Zn  0.12568327  0.86430445  0.93362967     1.49100
Zn714      Zn  0.24210214  0.87910201  0.93414205     1.49500
O715        O  0.16835648  0.83433503  0.92704724    -1.83300
O716        O  0.11535362  0.70606335  0.91585733    -0.73900
O717        O  0.14208416  0.87745100  0.89366698    -0.73700
O718        O  0.06689229  0.81196515  0.94855972    -0.73200
O719        O  0.12387795  0.76125793  0.89524905    -0.73900
O720        O  0.07505945  0.73970185  0.94955538    -0.73500
O721        O  0.09862838  0.88831736  0.91414005    -0.74100
O722        O  0.24921137  0.93713416  0.94909881    -0.73500
O723        O  0.23850318  0.86111161  0.89444029    -0.74200
O724        O  0.16809179  0.92517020  0.94923254    -0.73600
O725        O  0.29434179  0.90819355  0.91473672    -0.74100
O726        O  0.25943102  0.83755570  0.95022127    -0.74000
O727        O  0.18593868  0.75535022  0.95098266    -0.73800
C728        C  0.10925577  0.71440745  0.90075928     0.78000
C729        C  0.11196138  0.89314357  0.89895423     0.78500
C730        C  0.05431830  0.76605721  0.95471222     0.77400
C731        C  0.21508826  0.94700909  0.95497742     0.77800
C732        C  0.28513755  0.89320709  0.89968851     0.78900
C733        C  0.23160227  0.79036305  0.95661294     0.78000
Zn734      Zn  0.32993990  0.66558529  0.02297006     1.49700
Zn735      Zn  0.40682156  0.70248518  0.05054260     1.49400
Zn736      Zn  0.29787527  0.70351962  0.05144555     1.49100
Zn737      Zn  0.29260765  0.58967773  0.05141483     1.49500
O738        O  0.33227292  0.66536214  0.04576104    -1.83300
O739        O  0.38812693  0.66061648  0.01318373    -0.73900
O740        O  0.42452896  0.76581091  0.06528200    -0.73700
O741        O  0.27346551  0.72650153  0.03088804    -0.73200
O742        O  0.45045679  0.72501796  0.02895828    -0.73900
O743        O  0.33565807  0.73199685  0.01429353    -0.73500
O744        O  0.34917858  0.76661982  0.06499309    -0.74100
O745        O  0.23013539  0.57562797  0.06557738    -0.73500
O746        O  0.41869448  0.65241396  0.06464759    -0.74200
O747        O  0.23747749  0.65646952  0.06671599    -0.73600
O748        O  0.33907522  0.57566288  0.06623433    -0.74100
O749        O  0.27051649  0.54418372  0.03015788    -0.74000
O750        O  0.26255269  0.60376449  0.01519794    -0.73800
C751        C  0.43570749  0.69917705  0.01532382     0.78000
C752        C  0.39641672  0.78488756  0.07020701     0.78500
C753        C  0.29816497  0.74017462  0.01709257     0.77400
C754        C  0.21557783  0.60700102  0.07130774     0.77800
C755        C  0.38773963  0.60490474  0.07062314     0.78900
C756        C  0.25676598  0.55735947  0.01680612     0.78000
C757        C  0.21149468  0.73980660  0.98320375    -0.20500
C758        C  0.24974967  0.77804609  0.97210767    -0.08500
C759        C  0.30348052  0.80837476  0.97699353     0.30400
C760        C  0.31865954  0.79861543  0.99233210    -0.20500
C761        C  0.28049097  0.75969214  0.00322497    -0.08500
C762        C  0.22657931  0.73097607  0.99867994     0.30400
F763        F  0.18896597  0.69178206  0.00870645    -0.19000
H764        H  0.16963261  0.71693485  0.97996842     0.18700
H765        H  0.36055642  0.82031738  0.99553400     0.18700
F766        F  0.34154048  0.84644330  0.96683105    -0.19000
C767        C  0.26025309  0.97348569  0.98209232    -0.20500
C768        C  0.22766247  0.97821339  0.97034404    -0.08500
C769        C  0.20050838  0.50468620  0.97472397     0.30400
C770        C  0.20745488  0.52725697  0.99038653    -0.20500
C771        C  0.24042987  0.52293969  0.00206789    -0.08500
C772        C  0.26641778  0.99522918  0.99785499     0.30400
F773        F  0.29971292  0.99157436  0.00865518    -0.19000
H774        H  0.28004415  0.95172529  0.97920851     0.18700
H775        H  0.18797981  0.54931279  0.99329140     0.18700
F776        F  0.16804030  0.50924746  0.96380296    -0.19000
C777        C  0.51741957  0.78490802  0.97953798    -0.20500
C778        C  0.02049900  0.74669076  0.96965581    -0.08500
C779        C  0.99831355  0.69312231  0.97561125     0.30400
C780        C  0.97302549  0.67833186  0.99100820    -0.20500
C781        C  0.47103547  0.71698521  0.00091293    -0.08500
C782        C  0.49332562  0.77038311  0.99505479     0.30400
F783        F  0.48925322  0.80777956  0.00395098    -0.19000
H784        H  0.53483699  0.82664250  0.97543698     0.18700
H785        H  0.95436381  0.63649345  0.99515422     0.18700
F786        F  0.00073355  0.65501053  0.96657387    -0.19000
C787        C  0.46987584  0.86900662  0.10768451    -0.20500
C788        C  0.44508763  0.89888844  0.10964814    -0.08500
C789        C  0.40615246  0.89252504  0.09839966     0.30400
C790        C  0.39200152  0.85668518  0.08532401    -0.20500
C791        C  0.41674332  0.82675685  0.08311924    -0.08500
C792        C  0.45596930  0.83309813  0.09446291     0.30400
F793        F  0.48014629  0.80414865  0.09297866    -0.19000
H794        H  0.50115403  0.87490580  0.11606557     0.18700
H795        H  0.36150632  0.85240255  0.07687538     0.18700
F796        F  0.38242775  0.92183354  0.09991575    -0.19000
C797        C  0.46367904  0.61056963  0.08600474    -0.20500
C798        C  0.40837983  0.58513195  0.08375982    -0.08500
C799        C  0.37371733  0.54448467  0.09507840     0.30400
C800        C  0.39441017  0.52950960  0.10818658    -0.20500
C801        C  0.44959880  0.55420283  0.11005060    -0.08500
C802        C  0.48411475  0.59497010  0.09893136     0.30400
F803        F  0.03775164  0.61894105  0.10040873    -0.19000
H804        H  0.49128184  0.64229303  0.07762951     0.18700
H805        H  0.36741615  0.49714891  0.11650287     0.18700
F806        F  0.31998005  0.51952575  0.09361338    -0.19000
C807        C  0.09753245  0.51234416  0.09818084    -0.20500
C808        C  0.09784852  0.54854776  0.10972141    -0.08500
C809        C  0.13706189  0.60399173  0.10865332     0.30400
C810        C  0.17491750  0.62282353  0.09597039    -0.20500
C811        C  0.17424211  0.58657043  0.08426573    -0.08500
C812        C  0.13548513  0.53094212  0.08560822     0.30400
F813        F  0.13312190  0.49479076  0.07447431    -0.19000
H814        H  0.06701160  0.46955633  0.09873226     0.18700
H815        H  0.20489185  0.66581216  0.09532247     0.18700
F816        F  0.13741981  0.64005189  0.11940874    -0.19000
C817        C  0.43104232  0.63532879  0.14974716    -0.20500
C818        C  0.38095954  0.60325768  0.15740856    -0.08500
C819        C  0.36225060  0.54735263  0.15977594     0.30400
C820        C  0.39246592  0.52462123  0.15460973    -0.20500
C821        C  0.44263152  0.55673904  0.14699433    -0.08500
C822        C  0.46124845  0.61260328  0.14458156     0.30400
F823        F  0.50895955  0.64541720  0.13706952    -0.19000
H824        H  0.44764619  0.67858862  0.14819525     0.18700
H825        H  0.37578029  0.98130363  0.15600057     0.18700
F826        F  0.31447172  0.51452424  0.16724913    -0.19000
C827        C  0.44194699  0.81336129  0.16099442    -0.20500
C828        C  0.38771730  0.77471681  0.15766305    -0.08500
C829        C  0.35889031  0.79288390  0.14870290     0.30400
C830        C  0.38367066  0.84755536  0.14322706    -0.20500
C831        C  0.43785415  0.88622450  0.14661612    -0.08500
C832        C  0.46667704  0.86804476  0.15555639     0.30400
F833        F  0.01933027  0.90266806  0.15855681    -0.19000
H834        H  0.46520326  0.80115053  0.16808746     0.18700
H835        H  0.36046751  0.85977773  0.13610782     0.18700
F836        F  0.30618924  0.75830864  0.14573923    -0.19000
C837        C  0.18135873  0.62641439  0.16230302    -0.20500
C838        C  0.21697272  0.60946007  0.15786271    -0.08500
C839        C  0.19701498  0.56349345  0.14771608     0.30400
C840        C  0.14334988  0.53537920  0.14239695    -0.20500
C841        C  0.10774106  0.55232707  0.14684116    -0.08500
C842        C  0.12769268  0.59830688  0.15697620     0.30400
F843        F  0.09585842  0.61731413  0.16126652    -0.19000
H844        H  0.19507904  0.66134270  0.17022467     0.18700
H845        H  0.12963952  0.50048943  0.13445743     0.18700
F846        F  0.22884768  0.54451442  0.14339490    -0.19000
C847        C  0.47137847  0.64168151  0.64162755    -0.20500
C848        C  0.41886455  0.60629120  0.63614084    -0.08500
C849        C  0.38335872  0.56228334  0.64636197     0.30400
C850        C  0.39982321  0.55501470  0.66180567    -0.20500
C851        C  0.45206624  0.59042722  0.66721179    -0.08500
C852        C  0.48810233  0.63341850  0.65692486     0.30400
F853        F  0.03929193  0.66757991  0.66174221    -0.19000
H854        H  0.49939961  0.67621699  0.63415528     0.18700
H855        H  0.37217037  0.52041887  0.66933721     0.18700
F856        F  0.33221346  0.52701792  0.64172501    -0.19000
C857        C  0.42155666  0.80345869  0.64983189    -0.20500
C858        C  0.39201488  0.81096690  0.63760908    -0.08500
C859        C  0.36805356  0.84078527  0.64135420     0.30400
C860        C  0.37587747  0.86486890  0.65681376    -0.20500
C861        C  0.40645668  0.85836700  0.66890394    -0.08500
C862        C  0.42834994  0.82646622  0.66540672     0.30400
F863        F  0.45911176  0.82034950  0.67663739    -0.19000
H864        H  0.43883053  0.77899011  0.64740924     0.18700
H865        H  0.35937836  0.89006479  0.65919407     0.18700
F866        F  0.33825484  0.84775656  0.62996508    -0.19000
C867        C  0.16179341  0.52885326  0.64156475    -0.20500
C868        C  0.19325994  0.58430722  0.63764888    -0.08500
C869        C  0.20145589  0.62310573  0.64963832     0.30400
C870        C  0.17699790  0.60651017  0.66505581    -0.20500
C871        C  0.14336802  0.55114335  0.66868522    -0.08500
C872        C  0.13641972  0.51225190  0.65688918     0.30400
F873        F  0.10423487  0.45822165  0.66006777    -0.19000
H874        H  0.15637845  0.49845560  0.63268661     0.18700
H875        H  0.18227882  0.63706316  0.67385326     0.18700
F876        F  0.23422150  0.67717532  0.64662236    -0.19000
C877        C  0.20435670  0.97277041  0.52822541    -0.20500
C878        C  0.22047713  0.93495470  0.52875271    -0.08500
C879        C  0.25071710  0.93480598  0.54217450     0.30400
C880        C  0.26403843  0.97146860  0.55496334    -0.20500
C881        C  0.24870099  0.50969291  0.55430548    -0.08500
C882        C  0.21932759  0.51077216  0.54073624     0.30400
F883        F  0.20436533  0.54793641  0.53978508    -0.19000
H884        H  0.17935405  0.97210079  0.51830889     0.18700
H885        H  0.28811789  0.97127005  0.56505359     0.18700
F886        F  0.26728992  0.89898430  0.54296608    -0.19000
C887        C  0.07110416  0.82102017  0.54128473    -0.20500
C888        C  0.06797653  0.78609860  0.52873017    -0.08500
C889        C  0.02826115  0.73086129  0.52934402     0.30400
C890        C  0.99121069  0.71129618  0.54218464    -0.20500
C891        C  0.49451562  0.74624391  0.55479391    -0.08500
C892        C  0.03504171  0.80121721  0.55435751     0.30400
F893        F  0.53855014  0.83604835  0.56618478    -0.19000
H894        H  0.10232208  0.86363681  0.54109155     0.18700
H895        H  0.95998378  0.66867625  0.54235891     0.18700
F896        F  0.02657130  0.69567168  0.51796837    -0.19000
C897        C  0.18177852  0.74311964  0.53984238    -0.20500
C898        C  0.21531914  0.78054661  0.52778355    -0.08500
C899        C  0.27066120  0.80396292  0.52895679     0.30400
C900        C  0.29181714  0.78883784  0.54184328    -0.20500
C901        C  0.25820956  0.75172254  0.55399925    -0.08500
C902        C  0.20297807  0.72897194  0.55293492     0.30400
F903        F  0.16945756  0.69181228  0.56422554    -0.19000
H904        H  0.13910517  0.72599607  0.53931778     0.18700
H905        H  0.33456497  0.80666486  0.54248976     0.18700
F906        F  0.30432505  0.84388331  0.51835791    -0.19000
C907        C  0.19640558  0.96499502  0.48270446    -0.20500
C908        C  0.22627911  0.94801249  0.49155474    -0.08500
C909        C  0.28018001  0.98768366  0.49502984     0.30400
C910        C  0.30326807  0.54234762  0.48974845    -0.20500
C911        C  0.27349816  0.55924333  0.48079396    -0.08500
C912        C  0.21956820  0.51964505  0.47737049     0.30400
F913        F  0.18899908  0.53387230  0.46881231    -0.19000
H914        H  0.15460174  0.93626608  0.48030463     0.18700
H915        H  0.34502541  0.57111852  0.49220818     0.18700
F916        F  0.31069380  0.97358488  0.50368380    -0.19000
C917        C  0.48156923  0.70739649  0.47631058    -0.20500
C918        C  0.44574784  0.72407966  0.48078646    -0.08500
C919        C  0.46613453  0.77070898  0.49070444     0.30400
C920        C  0.01998965  0.79905522  0.49596206    -0.20500
C921        C  0.05571544  0.78225390  0.49149461    -0.08500
C922        C  0.03550492  0.73599112  0.48145139     0.30400
F923        F  0.06735036  0.71703404  0.47712614    -0.19000
H924        H  0.46776367  0.67217773  0.46850922     0.18700
H925        H  0.03381293  0.83413464  0.50383178     0.18700
F926        F  0.43453857  0.79013144  0.49485179    -0.19000
C927        C  0.20115120  0.72187763  0.49314546    -0.20500
C928        C  0.22057061  0.77779672  0.49079549    -0.08500
C929        C  0.27150180  0.80997512  0.48364168     0.30400
C930        C  0.30166828  0.78681912  0.47901295    -0.20500
C931        C  0.28228278  0.73089592  0.48139223    -0.08500
C932        C  0.23116368  0.69865836  0.48841725     0.30400
F933        F  0.20911404  0.64415106  0.49000683    -0.19000
H934        H  0.16268292  0.69615566  0.49897908     0.18700
H935        H  0.34012740  0.81253800  0.47317350     0.18700
F936        F  0.29324141  0.86438376  0.48184138    -0.19000
C937        C  0.39948798  0.98972086  0.87249044    -0.20500
C938        C  0.39971304  0.95368730  0.86097914    -0.08500
C939        C  0.36361037  0.89770974  0.86264721     0.30400
C940        C  0.32749762  0.87809862  0.87574172    -0.20500
C941        C  0.32785145  0.91405589  0.88744178    -0.08500
C942        C  0.36370829  0.97009711  0.88567469     0.30400
F943        F  0.36279190  0.00576459  0.89631033    -0.19000
H944        H  0.42784168  0.53288126  0.87130973     0.18700
H945        H  0.29935735  0.83472748  0.87684525     0.18700
F946        F  0.36520208  0.86207198  0.85216355    -0.19000
C947        C  0.09948383  0.96130115  0.86078608    -0.20500
C948        C  0.04542531  0.94447635  0.86144083    -0.08500
C949        C  0.01413471  0.91257178  0.87488024     0.30400
C950        C  0.03674397  0.89831037  0.88751164    -0.20500
C951        C  0.09053215  0.91449701  0.88676134    -0.08500
C952        C  0.12178987  0.94571691  0.87320775     0.30400
F953        F  0.17412595  0.96198798  0.87215073    -0.19000
H954        H  0.12487703  0.48785199  0.85089286     0.18700
H955        H  0.01179937  0.87314574  0.89762765     0.18700
F956        F  0.46156935  0.89527370  0.87582485    -0.19000
C957        C  0.08855649  0.59846169  0.87449165    -0.20500
C958        C  0.05588488  0.59949479  0.86201780    -0.08500
C959        C  0.03799862  0.63573437  0.86305689     0.30400
C960        C  0.05390102  0.67153548  0.87623095    -0.20500
C961        C  0.08665193  0.67064371  0.88870581    -0.08500
C962        C  0.10373534  0.63366967  0.88784880     0.30400
F963        F  0.13660186  0.63306871  0.89949856    -0.19000
H964        H  0.10141041  0.56952398  0.87399009     0.18700
H965        H  0.04068062  0.70017681  0.87671756     0.18700
F966        F  0.50363441  0.63508291  0.85174487    -0.19000
C967        C  0.29958660  0.94287962  0.77251824    -0.20500
C968        C  0.27019659  0.88745481  0.77640052    -0.08500
C969        C  0.27859305  0.85106527  0.76751037     0.30400
C970        C  0.31589741  0.86995129  0.75475039    -0.20500
C971        C  0.34478013  0.92538747  0.75047440    -0.08500
C972        C  0.33672763  0.96196447  0.75965319     0.30400
F973        F  0.36482023  0.01613557  0.75632322    -0.19000
H974        H  0.29254627  0.97105699  0.77913993     0.18700
H975        H  0.32164508  0.84099186  0.74807637     0.18700
F976        F  0.25007124  0.79709934  0.77103563    -0.19000
C977        C  0.15597667  0.93273094  0.76464928    -0.20500
C978        C  0.12130567  0.89126452  0.77551298    -0.08500
C979        C  0.06610843  0.86460132  0.77306211     0.30400
C980        C  0.04592417  0.88013239  0.75995720    -0.20500
C981        C  0.08062810  0.92256562  0.74919897    -0.08500
C982        C  0.13603712  0.94872608  0.75167967     0.30400
F983        F  0.17122887  0.48940029  0.74147104    -0.19000
H984        H  0.19873265  0.95218645  0.76610830     0.18700
H985        H  0.00313465  0.85949736  0.75838087     0.18700
F986        F  0.03201898  0.82234897  0.78293887    -0.19000
C987        C  0.11640093  0.66507557  0.76159261    -0.20500
C988        C  0.08157832  0.66394383  0.74946221    -0.08500
C989        C  0.06222779  0.69910472  0.75088588     0.30400
C990        C  0.07865443  0.73558448  0.76393213    -0.20500
C991        C  0.11388249  0.73715933  0.77588707    -0.08500
C992        C  0.13228394  0.70125736  0.77478392     0.30400
F993        F  0.16714804  0.70267187  0.78603916    -0.19000
H994        H  0.13092949  0.63756027  0.76095141     0.18700
H995        H  0.06495092  0.76377503  0.76448712     0.18700
F996        F  0.02861651  0.69934282  0.73944918    -0.19000
C997        C  0.06897377  0.86578773  0.82240690    -0.20500
C998        C  0.11471168  0.89685175  0.81260815    -0.08500
C999        C  0.12847587  0.95065498  0.80856216     0.30400
C1000       C  0.09759219  0.97215639  0.81410879    -0.20500
C1001       C  0.05202288  0.94116569  0.82398144    -0.08500
C1002       C  0.03805704  0.88726256  0.82793574     0.30400
F1003       F  0.99435366  0.85517177  0.83736333    -0.19000
H1004       H  0.05614232  0.82405314  0.82540443     0.18700
H1005       H  0.11056396  0.01397607  0.81117923     0.18700
F1006       F  0.17244226  0.98297688  0.79927150    -0.19000
C1007       C  0.31476241  0.87386460  0.80947258    -0.20500
C1008       C  0.27983137  0.89229142  0.81321431    -0.08500
C1009       C  0.30099275  0.94045341  0.82242942     0.30400
C1010       C  0.35480825  0.96856941  0.82775044    -0.20500
C1011       C  0.38972399  0.95013275  0.82393976    -0.08500
C1012       C  0.36866037  0.90228528  0.81461362     0.30400
F1013       F  0.39965308  0.88171470  0.81099595    -0.19000
H1014       H  0.30027820  0.83734779  0.80224381     0.18700
H1015       H  0.36923071  0.00475177  0.83515233     0.18700
F1016       F  0.27013232  0.96131036  0.82588910    -0.19000
C1017       C  0.11322129  0.65625497  0.82955609    -0.20500
C1018       C  0.06140684  0.61466702  0.82468492    -0.08500
C1019       C  0.03349754  0.62975154  0.81401679     0.30400
C1020       C  0.05660472  0.68416958  0.80849682    -0.20500
C1021       C  0.10860309  0.72560245  0.81323186    -0.08500
C1022       C  0.13630317  0.71071001  0.82404759     0.30400
F1023       F  0.18659539  0.74836630  0.82881438    -0.19000
H1024       H  0.13590140  0.64656260  0.83789126     0.18700
H1025       H  0.03390704  0.69390527  0.80018133     0.18700
F1026       F  0.48297692  0.59230839  0.80939138    -0.19000
C1027       C  0.35702829  0.79210505  0.19712075    -0.20500
C1028       C  0.38236669  0.76302807  0.19462910    -0.08500
C1029       C  0.42318034  0.77066779  0.20527297     0.30400
C1030       C  0.43812150  0.80649510  0.21843313    -0.20500
C1031       C  0.41217126  0.83495459  0.22132219    -0.08500
C1032       C  0.37167122  0.82789380  0.21039421     0.30400
F1033       F  0.34673039  0.85593276  0.21235217    -0.19000
H1034       H  0.32466008  0.78554823  0.18913862     0.18700
H1035       H  0.46989273  0.81167208  0.22644933     0.18700
F1036       F  0.44790195  0.74255615  0.20309673    -0.19000
C1037       C  0.36041932  0.54900349  0.21840403    -0.20500
C1038       C  0.41575823  0.57411235  0.22055732    -0.08500
C1039       C  0.45031356  0.61426100  0.20911681     0.30400
C1040       C  0.42959708  0.62960886  0.19609510    -0.20500
C1041       C  0.37442150  0.60563022  0.19439260    -0.08500
C1042       C  0.33992702  0.56493986  0.20554565     0.30400
F1043       F  0.28631873  0.54135897  0.20415727    -0.19000
H1044       H  0.33289063  0.51747417  0.22684051     0.18700
H1045       H  0.45661498  0.66166653  0.18770503     0.18700
F1046       F  0.50400178  0.63826455  0.21036971    -0.19000
C1047       C  0.22797487  0.65086133  0.20645040    -0.20500
C1048       C  0.22751594  0.61433935  0.19499397    -0.08500
C1049       C  0.18806082  0.55900547  0.19613529     0.30400
C1050       C  0.15038426  0.54051334  0.20885867    -0.20500
C1051       C  0.15129992  0.57697287  0.22052771    -0.08500
C1052       C  0.18997410  0.63260459  0.21903429     0.30400
F1053       F  0.19227823  0.66903556  0.23004474    -0.19000
H1054       H  0.25857754  0.69359870  0.20581499     0.18700
H1055       H  0.12036653  0.49755127  0.20958113     0.18700
F1056       F  0.18730794  0.52267090  0.18541085    -0.19000
C1057       C  0.02923069  0.86699654  0.33039804    -0.20500
C1058       C  0.08401905  0.89419172  0.33377554    -0.08500
C1059       C  0.12051357  0.92719659  0.32137451     0.30400
C1060       C  0.10219297  0.93313819  0.30603080    -0.20500
C1061       C  0.04735292  0.90695958  0.30285062    -0.08500
C1062       C  0.01097566  0.87361688  0.31518694     0.30400
F1063       F  0.95759464  0.84775263  0.31259572    -0.19000
H1064       H  0.00039207  0.84045206  0.33957144     0.18700
H1065       H  0.13089266  0.95991539  0.29686371     0.18700
F1066       F  0.17390969  0.95248987  0.32386040    -0.19000
C1067       C  0.10880921  0.62424574  0.31665227    -0.20500
C1068       C  0.08400360  0.63562736  0.30369285    -0.08500
C1069       C  0.06687312  0.67206886  0.30651350     0.30400
C1070       C  0.07355570  0.69562127  0.32203253    -0.20500
C1071       C  0.09819230  0.68412189  0.33496386    -0.08500
C1072       C  0.11629218  0.64856334  0.33209400     0.30400
F1073       F  0.14030227  0.63659310  0.34427098    -0.19000
H1074       H  0.12161130  0.59559401  0.31491853     0.18700
H1075       H  0.06056663  0.72410705  0.32381534     0.18700
F1076       F  0.04178021  0.68336439  0.29452855    -0.19000
C1077       C  0.28688498  0.87699423  0.32129287    -0.20500
C1078       C  0.30289265  0.91389813  0.33443296    -0.08500
C1079       C  0.34263694  0.96843752  0.33181056     0.30400
C1080       C  0.36793394  0.98500211  0.31648240    -0.20500
C1081       C  0.35332273  0.94766789  0.30344547    -0.08500
C1082       C  0.31139380  0.89372796  0.30585805     0.30400
F1083       F  0.29594988  0.85647541  0.29364478    -0.19000
H1084       H  0.25476138  0.83511372  0.32293178     0.18700
H1085       H  0.40031882  0.02680420  0.31496869     0.18700
F1086       F  0.35817365  0.00516392  0.34419148    -0.19000
C1087       C  0.29092285  0.53223006  0.44381943    -0.20500
C1088       C  0.27704642  0.57176730  0.44341562    -0.08500
C1089       C  0.24665695  0.57276578  0.43012394     0.30400
C1090       C  0.23044537  0.03479203  0.41748851    -0.20500
C1091       C  0.24405199  0.99510961  0.41794954    -0.08500
C1092       C  0.27410700  0.49374523  0.43129443     0.30400
F1093       F  0.28765499  0.45547972  0.43212608    -0.19000
H1094       H  0.31588052  0.53196464  0.45360345     0.18700
H1095       H  0.20636628  0.03567407  0.40750816     0.18700
F1096       F  0.23211671  0.61022966  0.42945821    -0.19000
C1097       C  0.43159044  0.67939151  0.43267776    -0.20500
C1098       C  0.43274490  0.71709359  0.44379496    -0.08500
C1099       C  0.46892860  0.77273481  0.44152591     0.30400
C1100       C  0.50374279  0.79040428  0.42816307    -0.20500
C1101       C  0.00223179  0.75279561  0.41690182    -0.08500
C1102       C  0.46632288  0.69706755  0.41926829     0.30400
F1103       F  0.96641195  0.65997118  0.40906637    -0.19000
H1104       H  0.40295014  0.63627055  0.43427202     0.18700
H1105       H  0.03220465  0.83357241  0.42657997     0.18700
F1106       F  0.46893660  0.80978468  0.45177040    -0.19000
C1107       C  0.29853922  0.77753704  0.41883808    -0.20500
C1108       C  0.24348407  0.75570114  0.41846427    -0.08500
C1109       C  0.21124451  0.72147203  0.43140211     0.30400
C1110       C  0.23380472  0.70794111  0.44424233    -0.20500
C1111       C  0.28880404  0.72926771  0.44450672    -0.08500
C1112       C  0.32118785  0.76480120  0.43185584     0.30400
F1113       F  0.37467635  0.78646543  0.43199079    -0.19000
H1114       H  0.32407443  0.80546251  0.40927662     0.18700
H1115       H  0.20809030  0.67897344  0.45355957     0.18700
F1116       F  0.15773699  0.70008654  0.43137781    -0.19000
Zn1117     Zn  0.69635327  0.40741182  0.37104525     1.49700
Zn1118     Zn  0.70148420  0.29780039  0.37134631     1.49400
Zn1119     Zn  0.66239740  0.33161425  0.40161527     1.49100
Zn1120     Zn  0.58894045  0.28939101  0.37061226     1.49500
O1121       O  0.66232630  0.33162057  0.37824372    -1.83300
O1122       O  0.75864367  0.42595891  0.35658438    -0.73900
O1123       O  0.73369168  0.27912516  0.39083400    -0.73700
O1124       O  0.70458873  0.40393936  0.41107042    -0.73200
O1125       O  0.75538967  0.34722895  0.35480182    -0.73900
O1126       O  0.71895179  0.46075770  0.39038592    -0.73500
O1127       O  0.69006272  0.28970137  0.41135369    -0.74100
O1128       O  0.53563116  0.25912220  0.38962122    -0.73500
O1129       O  0.65636841  0.23263533  0.35704444    -0.74200
O1130       O  0.59159540  0.30150222  0.41035866    -0.73600
O1131       O  0.58102559  0.23257167  0.35489557    -0.74100
O1132       O  0.57371565  0.33416227  0.35533502    -0.74000
O1133       O  0.64929199  0.41472779  0.35450927    -0.73800
C1134       C  0.77237344  0.39547431  0.34979834     0.78000
C1135       C  0.72107944  0.27518895  0.40607777     0.78500
C1136       C  0.72202970  0.45151863  0.40566132     0.77400
C1137       C  0.54492993  0.27185381  0.40482560     0.77800
C1138       C  0.61157292  0.21633529  0.35019418     0.78900
C1139       C  0.60285671  0.38125609  0.34900548     0.78000
Zn1140     Zn  0.91878362  0.45767994  0.25393094     1.49700
Zn1141     Zn  0.53195210  0.07158177  0.25361837     1.49400
Zn1142     Zn  0.99482993  0.49427791  0.28160206     1.49100
Zn1143     Zn  0.52937113  0.45875604  0.25363559     1.49500
O1144       O  0.99333914  0.49574362  0.25886718    -1.83300
O1145       O  0.90640641  0.00611758  0.23934167    -0.73900
O1146       O  0.55405357  0.11561351  0.27537315    -0.73700
O1147       O  0.93719279  0.49988144  0.29111643    -0.73200
O1148       O  0.98443465  0.08492662  0.23876132    -0.73900
O1149       O  0.87388410  0.43683241  0.27534455    -0.73500
O1150       O  0.56185848  0.05523503  0.28991201    -0.74100
O1151       O  0.55464124  0.43815179  0.27477079    -0.73500
O1152       O  0.59479068  0.08703319  0.23927268    -0.74200
O1153       O  0.48797612  0.42726185  0.29012116    -0.73600
O1154       O  0.58961818  0.00713360  0.23845045    -0.74100
O1155       O  0.97926659  0.39497528  0.23981599    -0.74000
O1156       O  0.90307401  0.39431291  0.23947984    -0.73800
C1157       C  0.93645985  0.05438180  0.23379334     0.78000
C1158       C  0.56751000  0.10168240  0.28867581     0.78500
C1159       C  0.88898417  0.46288294  0.28895578     0.77400
C1160       C  0.52835573  0.42313132  0.28830556     0.77800
C1161       C  0.61034261  0.05631945  0.23365999     0.78900
C1162       C  0.93200047  0.37621723  0.23448291     0.78000
C1163       C  0.66798589  0.33941434  0.81226297     0.46300
H1164       H  0.66742866  0.33912830  0.82595805    -0.02700
C1165       C  0.66932983  0.33997646  0.78017124     0.46400
H1166       H  0.67021507  0.34038281  0.76642680    -0.02700
C1167       C  0.64203965  0.37052438  0.80412031    -0.16400
C1168       C  0.72615208  0.36726741  0.80452041    -0.16200
C1169       C  0.63653844  0.28045169  0.80436233    -0.16500
C1170       C  0.64407503  0.36961129  0.78720660    -0.16500
C1171       C  0.72432670  0.36611962  0.78763042    -0.16100
C1172       C  0.63812977  0.28317546  0.78741097    -0.16400
C1173       C  0.00128945  0.50067787  0.82491868     0.46300
H1174       H  0.00192235  0.50178819  0.81122518    -0.02700
C1175       C  0.99975554  0.49806729  0.85695752     0.46400
H1176       H  0.99885897  0.49727847  0.87069543    -0.02700
C1177       C  0.53386233  0.05916504  0.83315591    -0.16400
C1178       C  0.94320923  0.47382133  0.83264536    -0.16200
C1179       C  0.52581989  0.46772079  0.83277997    -0.16500
C1180       C  0.53239684  0.05511534  0.85007535    -0.16500
C1181       C  0.94502692  0.47408254  0.84953588    -0.16100
C1182       C  0.52341804  0.46723350  0.84974758    -0.16400
C1183       C  0.66782241  0.33254620  0.52392570     0.46300
H1184       H  0.66775067  0.33131213  0.53765709    -0.02700
C1185       C  0.66725844  0.33465050  0.49187217     0.46400
H1186       H  0.66717165  0.33564313  0.47817882    -0.02700
C1187       C  0.69836549  0.38957953  0.51694056    -0.16400
C1188       C  0.69251473  0.30326716  0.51639282    -0.16200
C1189       C  0.61243675  0.30684483  0.51686359    -0.16500
C1190       C  0.69898408  0.39300841  0.50001999    -0.16500
C1191       C  0.69379265  0.30355478  0.49949614    -0.16100
C1192       C  0.60954594  0.30647169  0.49995118    -0.16400
C1193       C  0.83390795  0.17245255  0.48034062     0.46300
H1194       H  0.83395781  0.17158034  0.49403545    -0.02700
C1195       C  0.83327410  0.17414068  0.44827222     0.46400
H1196       H  0.83348977  0.17515918  0.43453490    -0.02700
C1197       C  0.80897369  0.20499350  0.47267102    -0.16400
C1198       C  0.89148291  0.19911449  0.47229332    -0.16200
C1199       C  0.80074843  0.11403994  0.47222081    -0.16500
C1200       C  0.81071231  0.20558329  0.45577518    -0.16500
C1201       C  0.88834490  0.19789579  0.45541092    -0.16100
C1202       C  0.80087120  0.11719678  0.45526768    -0.16400
Zn1203     Zn  0.83510771  0.17198216  0.57052503     1.49700
Zn1204     Zn  0.90794327  0.21344873  0.60103577     1.49400
Zn1205     Zn  0.79189993  0.19932923  0.60044774     1.49100
Zn1206     Zn  0.80346514  0.09503110  0.60087667     1.49500
O1207       O  0.83475456  0.16986968  0.59380100    -1.83300
O1208       O  0.90484571  0.19450459  0.56152858    -0.73900
O1209       O  0.91350945  0.26886098  0.61683623    -0.73700
O1210       O  0.76293631  0.22122405  0.58099494    -0.73200
O1211       O  0.96010744  0.24364631  0.58170083    -0.73900
O1212       O  0.81483265  0.22131773  0.56114728    -0.73500
O1213       O  0.83412514  0.26102553  0.61577530    -0.74100
O1214       O  0.74442635  0.07602746  0.61678416    -0.73500
O1215       O  0.92575512  0.16984548  0.61598158    -0.74200
O1216       O  0.73497945  0.14763097  0.61584930    -0.73600
O1217       O  0.85399486  0.08659690  0.61535482    -0.74100
O1218       O  0.77759968  0.04417126  0.58138368    -0.74000
O1219       O  0.78621603  0.10079288  0.56120125    -0.73800
C1220       C  0.95138701  0.22712373  0.56679173     0.78000
C1221       C  0.87996025  0.28036785  0.62220689     0.78500
C1222       C  0.78018372  0.23132776  0.56616641     0.77400
C1223       C  0.72426040  0.10260487  0.62220919     0.77800
C1224       C  0.89945012  0.12106184  0.62126112     0.78900
C1225       C  0.77080587  0.05342480  0.56644570     0.78000
Zn1226     Zn  0.50242301  0.00318149  0.68938571     1.49700
Zn1227     Zn  0.96296019  0.42715362  0.71790571     1.49400
Zn1228     Zn  0.57581323  0.04090724  0.71731810     1.49100
Zn1229     Zn  0.96633532  0.04049779  0.71665174     1.49500
O1230       O  0.50188448  0.00271753  0.71213041    -1.83300
O1231       O  0.93546854  0.44252546  0.68091902    -0.73900
O1232       O  0.51058201  0.41227899  0.73195431    -0.73700
O1233       O  0.62109231  0.06309708  0.69611379    -0.73200
O1234       O  0.93733239  0.38102856  0.69685939    -0.73900
O1235       O  0.56021288  0.99541448  0.68101825    -0.73500
O1236       O  0.58820928  0.49139907  0.73134537    -0.74100
O1237       O  0.51558083  0.10502702  0.73043025    -0.73500
O1238       O  0.90250668  0.41441922  0.73264370    -0.74200
O1239       O  0.59046084  0.10336075  0.73193635    -0.73600
O1240       O  0.90480577  0.49283491  0.73161439    -0.74100
O1241       O  0.94378744  0.06068221  0.69507262    -0.74000
O1242       O  0.01121570  0.07068720  0.68019715    -0.73800
C1243       C  0.92535698  0.39464233  0.68324681     0.78000
C1244       C  0.55892465  0.44265391  0.73656271     0.78500
C1245       C  0.60745240  0.03488692  0.68291385     0.77400
C1246       C  0.56207601  0.12278901  0.73627198     0.77800
C1247       C  0.88567593  0.44493617  0.73737944     0.78900
C1248       C  0.97105483  0.07536733  0.68173244     0.78000
C1249       C  0.82817712  0.16082687  0.15844025     0.46300
H1250       H  0.82794481  0.16132301  0.14474484    -0.02700
C1251       C  0.82867575  0.15984754  0.19054425     0.46400
H1252       H  0.82908783  0.15961847  0.20428468    -0.02700
C1253       C  0.77053289  0.13319370  0.16654330    -0.16400
C1254       C  0.85440333  0.12951979  0.16618357    -0.16200
C1255       C  0.86000016  0.21955643  0.16635573    -0.16500
C1256       C  0.77302962  0.13400647  0.18348124    -0.16500
C1257       C  0.85296739  0.12962947  0.18310026    -0.16100
C1258       C  0.85937374  0.21670570  0.18325250    -0.16400
C1259       C  0.99681960  0.50149114  0.11403093     0.46300
H1260       H  0.99679142  0.50196603  0.10028785    -0.02700
C1261       C  0.99649070  0.00001222  0.14611156     0.46400
H1262       H  0.99628574  0.99921263  0.15980643    -0.02700
C1263       C  0.97164175  0.03083906  0.12139854    -0.15800
C1264       C  0.96694923  0.44452813  0.12121934    -0.16200
C1265       C  0.55248114  0.02829454  0.12124276    -0.16500
C1266       C  0.96971590  0.03070925  0.13830364    -0.16500
C1267       C  0.96565353  0.44138106  0.13810957    -0.16100
C1268       C  0.55446487  0.02858866  0.13817830    -0.16400
Zn1269     Zn  0.63747056  0.26001287  0.93479051     1.49700
Zn1270     Zn  0.66840740  0.33429145  0.90374480     1.49400
Zn1271     Zn  0.62575637  0.36442324  0.93362570     1.49100
Zn1272     Zn  0.74229059  0.37954208  0.93415226     1.49500
O1273       O  0.66856910  0.33462984  0.92706272    -1.83300
O1274       O  0.61574688  0.20644431  0.91583505    -0.73900
O1275       O  0.64259348  0.37804395  0.89369196    -0.73700
O1276       O  0.56696480  0.31200070  0.94852396    -0.73200
O1277       O  0.62382715  0.26158621  0.89526915    -0.73900
O1278       O  0.57536187  0.23987678  0.94956492    -0.73500
O1279       O  0.59874452  0.38844788  0.91413858    -0.74100
O1280       O  0.74930552  0.43765563  0.94906016    -0.73500
O1281       O  0.73864260  0.36108125  0.89446866    -0.74200
O1282       O  0.66798936  0.42520335  0.94925398    -0.73600
O1283       O  0.79450364  0.40846425  0.91472853    -0.74100
O1284       O  0.75961597  0.33813435  0.95029566    -0.74000
O1285       O  0.68635623  0.25574684  0.95096166    -0.73800
C1286       C  0.60941680  0.21475909  0.90075483     0.78000
C1287       C  0.61229032  0.39352723  0.89896855     0.78500
C1288       C  0.55451337  0.26615813  0.95469771     0.77400
C1289       C  0.71502869  0.44725446  0.95497408     0.77800
C1290       C  0.78528140  0.39326878  0.89969712     0.78900
C1291       C  0.73189166  0.29086908  0.95664942     0.78000
Zn1292     Zn  0.82994617  0.16565199  0.02294583     1.49700
Zn1293     Zn  0.90693705  0.20258748  0.05050957     1.49400
Zn1294     Zn  0.79790034  0.20346788  0.05145504     1.49100
Zn1295     Zn  0.79278848  0.08971819  0.05140063     1.49500
O1296       O  0.83236538  0.16540480  0.04573720    -1.83300
O1297       O  0.88817124  0.16083637  0.01312395    -0.73900
O1298       O  0.92459838  0.26584821  0.06527535    -0.73700
O1299       O  0.77341972  0.22653588  0.03093165    -0.73200
O1300       O  0.95055504  0.22511252  0.02891977    -0.73900
O1301       O  0.83546652  0.23198529  0.01427377    -0.73500
O1302       O  0.84915314  0.26647644  0.06502904    -0.74100
O1303       O  0.73029860  0.07556294  0.06558146    -0.73500
O1304       O  0.91893332  0.15260503  0.06461410    -0.74200
O1305       O  0.73757480  0.15636947  0.06673281    -0.73600
O1306       O  0.83933437  0.07584034  0.06623133    -0.74100
O1307       O  0.77076815  0.04423181  0.03013538    -0.74000
O1308       O  0.76260728  0.10372503  0.01519649    -0.73800
C1309       C  0.93578364  0.19931266  0.01527763     0.78000
C1310       C  0.89640410  0.28478903  0.07023604     0.78500
C1311       C  0.79804547  0.24023123  0.01712420     0.77400
C1312       C  0.71573497  0.10691282  0.07132792     0.77800
C1313       C  0.88800416  0.10512577  0.07061097     0.78900
C1314       C  0.75696178  0.05737582  0.01678764     0.78000
C1315       C  0.71168618  0.23958317  0.98310810    -0.20500
C1316       C  0.74995933  0.27852683  0.97216161    -0.08500
C1317       C  0.80350655  0.30938628  0.97721536     0.30400
C1318       C  0.81852290  0.29945357  0.99255895    -0.20500
C1319       C  0.78034472  0.25984351  0.00329457    -0.08500
C1320       C  0.72658889  0.23058058  0.99858964     0.30400
F1321       F  0.68902369  0.19069812  0.00845679    -0.19000
H1322       H  0.66994124  0.21625412  0.97974942     0.18700
H1323       H  0.86032314  0.32156735  0.99588499     0.18700
F1324       F  0.84157022  0.34816051  0.96721411    -0.19000
C1325       C  0.76022323  0.47374283  0.98207860    -0.20500
C1326       C  0.72748655  0.47834372  0.97035910    -0.08500
C1327       C  0.70094313  0.00485866  0.97466515     0.30400
C1328       C  0.70791551  0.02750559  0.99031629    -0.20500
C1329       C  0.74066873  0.02298259  0.00203915    -0.08500
C1330       C  0.76633051  0.49536906  0.99785478     0.30400
F1331       F  0.79977126  0.49185424  0.00862726    -0.19000
H1332       H  0.78018367  0.45217586  0.97916070     0.18700
H1333       H  0.68862493  0.04977190  0.99317999     0.18700
F1334       F  0.66873423  0.00967595  0.96370030    -0.19000
C1335       C  0.01817672  0.28518782  0.97960732    -0.20500
C1336       C  0.52073636  0.24683571  0.96964509    -0.08500
C1337       C  0.49803847  0.19311218  0.97550771     0.30400
C1338       C  0.47268551  0.17828303  0.99089518    -0.20500
C1339       C  0.97115902  0.21704525  0.00087604    -0.08500
C1340       C  0.99404490  0.27062294  0.99511717     0.30400
F1341       F  0.99051771  0.30819254  0.00410042    -0.19000
H1342       H  0.03604585  0.32704960  0.97557945     0.18700
H1343       H  0.45359978  0.13633465  0.99496755     0.18700
F1344       F  0.49997724  0.15488975  0.96637982    -0.19000
C1345       C  0.96978468  0.36879774  0.10774337    -0.20500
C1346       C  0.94494258  0.39862489  0.10972071    -0.08500
C1347       C  0.90591702  0.39216304  0.09849572     0.30400
C1348       C  0.89180625  0.35637287  0.08541049    -0.20500
C1349       C  0.91664505  0.32655243  0.08317824    -0.08500
C1350       C  0.95587952  0.33289465  0.09451877     0.30400
F1351       F  0.98007064  0.30396101  0.09302578    -0.19000
H1352       H  0.00110761  0.37474507  0.11611237     0.18700
H1353       H  0.86127422  0.35205837  0.07697236     0.18700
F1354       F  0.88208634  0.42135839  0.10003691    -0.19000
C1355       C  0.96398131  0.11064058  0.08592889    -0.20500
C1356       C  0.90867571  0.08543602  0.08376091    -0.08500
C1357       C  0.87405097  0.04510377  0.09516151     0.30400
C1358       C  0.89477612  0.03012539  0.10825886    -0.20500
C1359       C  0.94996218  0.05455177  0.11004490    -0.08500
C1360       C  0.98445006  0.09506909  0.09885479     0.30400
F1361       F  0.53807043  0.11883810  0.10026503    -0.19000
H1362       H  0.99155343  0.14214123  0.07749116     0.18700
H1363       H  0.86778947  0.99795367  0.11662748     0.18700
F1364       F  0.82031902  0.02047075  0.09378827    -0.19000
C1365       C  0.59777122  0.01230768  0.09823761    -0.20500
C1366       C  0.59809970  0.04854195  0.10976839    -0.08500
C1367       C  0.63735545  0.10397038  0.10870153     0.30400
C1368       C  0.67519666  0.12276496  0.09601566    -0.20500
C1369       C  0.67447219  0.08649072  0.08430872    -0.08500
C1370       C  0.63571699  0.03086606  0.08566384     0.30400
F1371       F  0.63333245  0.99469020  0.07453596    -0.19000
H1372       H  0.56722468  0.96952538  0.09879218     0.18700
H1373       H  0.70518676  0.16575059  0.09536239     0.18700
F1374       F  0.63775101  0.14005163  0.11945641    -0.19000
C1375       C  0.93124929  0.13540844  0.14982289    -0.20500
C1376       C  0.88103575  0.10325528  0.15740086    -0.08500
C1377       C  0.86222022  0.04730089  0.15969034     0.30400
C1378       C  0.89246452  0.02459904  0.15452912    -0.20500
C1379       C  0.94275646  0.05679744  0.14699457    -0.08500
C1380       C  0.96147469  0.11270880  0.14465618     0.30400
F1381       F  0.00929922  0.14559020  0.13721464    -0.19000
H1382       H  0.94792833  0.17870245  0.14833607     0.18700
H1383       H  0.87585608  0.48136013  0.15615193     0.18700
F1384       F  0.81431226  0.01439784  0.16708257    -0.19000
C1385       C  0.94204763  0.31318538  0.16095071    -0.20500
C1386       C  0.88773859  0.27463441  0.15769352    -0.08500
C1387       C  0.85883775  0.29292182  0.14883311     0.30400
C1388       C  0.88362393  0.34760981  0.14337354    -0.20500
C1389       C  0.93788935  0.38618445  0.14668308    -0.08500
C1390       C  0.96679109  0.36788634  0.15552428     0.30400
F1391       F  0.51950341  0.40243085  0.15845558    -0.19000
H1392       H  0.96535655  0.30088615  0.16797553     0.18700
H1393       H  0.86036353  0.35991584  0.13632281     0.18700
F1394       F  0.80606703  0.25844391  0.14595186    -0.19000
C1395       C  0.68138143  0.12627890  0.16236764    -0.20500
C1396       C  0.71700079  0.10933393  0.15792657    -0.08500
C1397       C  0.69704516  0.06335634  0.14778465     0.30400
C1398       C  0.64338645  0.03524662  0.14246007    -0.20500
C1399       C  0.60778528  0.05221553  0.14689205    -0.08500
C1400       C  0.62772359  0.09818056  0.15703315     0.30400
F1401       F  0.59588969  0.11719385  0.16131737    -0.19000
H1402       H  0.69509693  0.16120588  0.17028945     0.18700
H1403       H  0.62968294  0.00036023  0.13451957     0.18700
F1404       F  0.72887947  0.04437412  0.14346854    -0.19000
C1405       C  0.97213110  0.14126861  0.64129857    -0.20500
C1406       C  0.91934890  0.10643791  0.63595344    -0.08500
C1407       C  0.88364957  0.06290983  0.64628929     0.30400
C1408       C  0.90016828  0.05564556  0.66172294    -0.20500
C1409       C  0.95266461  0.09052672  0.66700434    -0.08500
C1410       C  0.98891378  0.13294818  0.65658187     0.30400
F1411       F  0.54035682  0.16654313  0.66126366    -0.19000
H1412       H  0.00031039  0.17540998  0.63372659     0.18700
H1413       H  0.87230817  0.02145498  0.66935022     0.18700
F1414       F  0.83224588  0.02817899  0.64178435    -0.19000
C1415       C  0.92091360  0.30303080  0.64993327    -0.20500
C1416       C  0.89161765  0.31079001  0.63768256    -0.08500
C1417       C  0.86779433  0.34075155  0.64141217     0.30400
C1418       C  0.87563506  0.36484015  0.65687244    -0.20500
C1419       C  0.90607685  0.35818651  0.66897871    -0.08500
C1420       C  0.92770407  0.32602642  0.66550947     0.30400
F1421       F  0.95825083  0.31967118  0.67676514    -0.19000
H1422       H  0.93803633  0.27841504  0.64752552     0.18700
H1423       H  0.85929913  0.39019221  0.65923566     0.18700
F1424       F  0.83816669  0.34790486  0.63000311    -0.19000
C1425       C  0.66149171  0.02896275  0.64141566    -0.20500
C1426       C  0.69342327  0.08445298  0.63761444    -0.08500
C1427       C  0.70199709  0.12312542  0.64969273     0.30400
C1428       C  0.67743772  0.10638750  0.66509438    -0.20500
C1429       C  0.64333996  0.05100342  0.66861738    -0.08500
C1430       C  0.63602171  0.01222338  0.65672215     0.30400
F1431       F  0.60339263  0.95817649  0.65978375    -0.19000
H1432       H  0.65578556  0.99865293  0.63246003     0.18700
H1433       H  0.68304739  0.13687566  0.67396722     0.18700
F1434       F  0.73523888  0.17718535  0.64677467    -0.19000
C1435       C  0.70461284  0.47291938  0.52813053    -0.20500
C1436       C  0.72055820  0.43496821  0.52868412    -0.08500
C1437       C  0.75061777  0.43467685  0.54213923     0.30400
C1438       C  0.76387644  0.47128353  0.55494073    -0.20500
C1439       C  0.74872790  0.00980552  0.55434123    -0.08500
C1440       C  0.71910977  0.01069271  0.54081647     0.30400
F1441       F  0.70395750  0.04771324  0.53990101    -0.19000
H1442       H  0.67976170  0.47238445  0.51818608     0.18700
H1443       H  0.78779264  0.47094480  0.56505967     0.18700
F1444       F  0.76705605  0.39875287  0.54295753    -0.19000
C1445       C  0.57091159  0.32159475  0.54106800    -0.20500
C1446       C  0.56798149  0.28639494  0.52863992    -0.08500
C1447       C  0.52851492  0.23110233  0.52938317     0.30400
C1448       C  0.49153606  0.21170555  0.54224096    -0.20500
C1449       C  0.99461463  0.24693055  0.55472618    -0.08500
C1450       C  0.53484904  0.30199454  0.55414558     0.30400
F1451       F  0.03802355  0.33711403  0.56581664    -0.19000
H1452       H  0.60195935  0.36426903  0.54076843     0.18700
H1453       H  0.46052359  0.16901128  0.54252340     0.18700
F1454       F  0.52701505  0.19572600  0.51811503    -0.19000
C1455       C  0.68163800  0.24274884  0.53966853    -0.20500
C1456       C  0.71523761  0.28050295  0.52768844    -0.08500
C1457       C  0.77060400  0.30423775  0.52894521     0.30400
C1458       C  0.79174741  0.28914680  0.54184421    -0.20500
C1459       C  0.75808253  0.25171606  0.55392593    -0.08500
C1460       C  0.70281357  0.22858699  0.55276706     0.30400
F1461       F  0.66925659  0.19105694  0.56397033    -0.19000
H1462       H  0.63893391  0.22537268  0.53907798     0.18700
H1463       H  0.83452196  0.30724462  0.54256047     0.18700
F1464       F  0.80427398  0.34445087  0.51842446    -0.19000
C1465       C  0.69660558  0.46501438  0.48256631    -0.20500
C1466       C  0.72640174  0.44805511  0.49147212    -0.08500
C1467       C  0.78026906  0.48774904  0.49498588     0.30400
C1468       C  0.80316113  0.04229072  0.48978188    -0.20500
C1469       C  0.77332755  0.05919824  0.48086962    -0.08500
C1470       C  0.71934462  0.01963638  0.47750302     0.30400
F1471       F  0.68870975  0.03389221  0.46899645    -0.19000
H1472       H  0.65483564  0.43626484  0.48012457     0.18700
H1473       H  0.84495185  0.07104033  0.49220079     0.18700
F1474       F  0.81073371  0.47366838  0.50367630    -0.19000
C1475       C  0.98152078  0.20731005  0.47624775    -0.20500
C1476       C  0.94564725  0.22391398  0.48073803    -0.08500
C1477       C  0.96598458  0.27050743  0.49066863     0.30400
C1478       C  0.51985735  0.29893945  0.49590887    -0.20500
C1479       C  0.55565228  0.28224198  0.49142416    -0.08500
C1480       C  0.53547657  0.23597356  0.48138365     0.30400
F1481       F  0.56737413  0.21708826  0.47704872    -0.19000
H1482       H  0.96774735  0.17210615  0.46844191     0.18700
H1483       H  0.53364090  0.33401195  0.50377862     0.18700
F1484       F  0.93431365  0.28981006  0.49484930    -0.19000
C1485       C  0.70086219  0.22181395  0.49295763    -0.20500
C1486       C  0.72053515  0.27782268  0.49072071    -0.08500
C1487       C  0.77170664  0.31003994  0.48372324     0.30400
C1488       C  0.80185120  0.28682950  0.47912666    -0.20500
C1489       C  0.78221403  0.23081818  0.48139521    -0.08500
C1490       C  0.73085595  0.19854411  0.48826198     0.30400
F1491       F  0.70857074  0.14396837  0.48971992    -0.19000
H1492       H  0.66220361  0.19605460  0.49867592     0.18700
H1493       H  0.84049450  0.31258152  0.47339835     0.18700
F1494       F  0.79367430  0.36451866  0.48204391    -0.19000
C1495       C  0.89946523  0.48960406  0.87242015    -0.20500
C1496       C  0.89968711  0.45350284  0.86093555    -0.08500
C1497       C  0.86363049  0.39752825  0.86264656     0.30400
C1498       C  0.82758319  0.37799312  0.87576072    -0.20500
C1499       C  0.82796175  0.41402625  0.88743817    -0.08500
C1500       C  0.86376225  0.47006020  0.88562365     0.30400
F1501       F  0.86286127  0.50579895  0.89623201    -0.19000
H1502       H  0.92796965  0.03301880  0.87142876     0.18700
H1503       H  0.79947359  0.33462483  0.87689648     0.18700
F1504       F  0.86520739  0.36182691  0.85218721    -0.19000
C1505       C  0.59972320  0.46163073  0.86080311    -0.20500
C1506       C  0.54559109  0.44453157  0.86142126    -0.08500
C1507       C  0.51429801  0.41252358  0.87484418     0.30400
C1508       C  0.53696335  0.39839200  0.88749044    -0.20500
C1509       C  0.59082516  0.41484021  0.88677641    -0.08500
C1510       C  0.62210597  0.44621307  0.87324748     0.30400
F1511       F  0.67452642  0.46278594  0.87223674    -0.19000
H1512       H  0.62465555  0.98746723  0.85087024     0.18700
H1513       H  0.51200890  0.37311828  0.89758890     0.18700
F1514       F  0.96168144  0.39504181  0.87576165    -0.19000
C1515       C  0.58838028  0.09846030  0.87458007    -0.20500
C1516       C  0.55598841  0.09967053  0.86203937    -0.08500
C1517       C  0.53841096  0.13618392  0.86299768     0.30400
C1518       C  0.55435902  0.17207287  0.87615006    -0.20500
C1519       C  0.58682579  0.17099877  0.88869206    -0.08500
C1520       C  0.60356607  0.13373084  0.88792222     0.30400
F1521       F  0.63609001  0.13286772  0.89964879    -0.19000
H1522       H  0.60099850  0.06932547  0.87414477     0.18700
H1523       H  0.54136294  0.20090347  0.87657068     0.18700
F1524       F  0.00429242  0.13571632  0.85163407    -0.19000
C1525       C  0.79997299  0.44279365  0.77264160    -0.20500
C1526       C  0.77029717  0.38731054  0.77642420    -0.08500
C1527       C  0.77848670  0.35089044  0.76747118     0.30400
C1528       C  0.81583112  0.36979899  0.75472927    -0.20500
C1529       C  0.84497021  0.42529308  0.75054624    -0.08500
C1530       C  0.83717350  0.46190839  0.75979909     0.30400
F1531       F  0.86557278  0.51613672  0.75656234    -0.19000
H1532       H  0.79310459  0.47099774  0.77932013     0.18700
H1533       H  0.82139833  0.34082175  0.74799302     0.18700
F1534       F  0.74971892  0.29688081  0.77091240    -0.19000
C1535       C  0.65613333  0.43285237  0.76465340    -0.20500
C1536       C  0.62146511  0.39131867  0.77549917    -0.08500
C1537       C  0.56627458  0.36456184  0.77302737     0.30400
C1538       C  0.54608364  0.38005808  0.75991826    -0.20500
C1539       C  0.58077386  0.42256131  0.74917923    -0.08500
C1540       C  0.63618334  0.44882653  0.75168127     0.30400
F1541       F  0.67107456  0.98918665  0.74145427    -0.19000
H1542       H  0.69889214  0.45237414  0.76612875     0.18700
H1543       H  0.50329483  0.35934738  0.75832647     0.18700
F1544       F  0.53220210  0.32225031  0.78288852    -0.19000
C1545       C  0.61667734  0.16534681  0.76144357    -0.20500
C1546       C  0.58172034  0.16412152  0.74934553    -0.08500
C1547       C  0.56224416  0.19916627  0.75081399     0.30400
C1548       C  0.57865123  0.23559484  0.76387658    -0.20500
C1549       C  0.61395552  0.23720717  0.77581038    -0.08500
C1550       C  0.63250379  0.20144125  0.77465687     0.30400
F1551       F  0.66744557  0.20289800  0.78588912    -0.19000
H1552       H  0.63132649  0.13793967  0.76076837     0.18700
H1553       H  0.56485030  0.26369802  0.76446530     0.18700
F1554       F  0.52849959  0.19932001  0.73941227    -0.19000
C1555       C  0.56909924  0.36576682  0.82239053    -0.20500
C1556       C  0.61483628  0.39683389  0.81259302    -0.08500
C1557       C  0.62862930  0.45065239  0.80855803     0.30400
C1558       C  0.59774822  0.47215462  0.81410453    -0.20500
C1559       C  0.55216299  0.44115186  0.82396895    -0.08500
C1560       C  0.53819428  0.38724743  0.82792337     0.30400
F1561       F  0.49448960  0.35515400  0.83735016    -0.19000
H1562       H  0.55625861  0.32402653  0.82538325     0.18700
H1563       H  0.61072977  0.51398013  0.81118029     0.18700
F1564       F  0.67262108  0.48298716  0.79927885    -0.19000
C1565       C  0.81461935  0.37345804  0.80954045    -0.20500
C1566       C  0.77982728  0.39210777  0.81321558    -0.08500
C1567       C  0.80115467  0.44048493  0.82232988     0.30400
C1568       C  0.85498212  0.46857125  0.82763555    -0.20500
C1569       C  0.88975634  0.44990871  0.82389750    -0.08500
C1570       C  0.86853298  0.40184385  0.81466849     0.30400
F1571       F  0.89938653  0.38104847  0.81113221    -0.19000
H1572       H  0.80001844  0.33681072  0.80236697     0.18700
H1573       H  0.86952809  0.50491407  0.83496821     0.18700
F1574       F  0.77044742  0.46158496  0.82569754    -0.19000
C1575       C  0.61325380  0.15632272  0.82955495    -0.20500
C1576       C  0.56146372  0.11470182  0.82467936    -0.08500
C1577       C  0.53358566  0.12969081  0.81396431     0.30400
C1578       C  0.55668553  0.18406816  0.80841352    -0.20500
C1579       C  0.60863881  0.22554119  0.81316597    -0.08500
C1580       C  0.63632145  0.21074018  0.82401910     0.30400
F1581       F  0.68657381  0.24845405  0.82880345    -0.19000
H1582       H  0.63591440  0.14669248  0.83791912     0.18700
H1583       H  0.53400333  0.19374590  0.80007212     0.18700
F1584       F  0.98309844  0.09220740  0.80932311    -0.19000
C1585       C  0.85713535  0.29209937  0.19709894    -0.20500
C1586       C  0.88245597  0.26298675  0.19464407    -0.08500
C1587       C  0.92329934  0.27072359  0.20528918     0.30400
C1588       C  0.93827433  0.30666740  0.21841904    -0.20500
C1589       C  0.91233214  0.33515390  0.22127573    -0.08500
C1590       C  0.87181684  0.32801173  0.21034048     0.30400
F1591       F  0.84688584  0.35607403  0.21226261    -0.19000
H1592       H  0.82475704  0.28548511  0.18911186     0.18700
H1593       H  0.97006040  0.31190462  0.22643916     0.18700
F1594       F  0.94803208  0.24261288  0.20314166    -0.19000
C1595       C  0.86031121  0.04828575  0.21826105    -0.20500
C1596       C  0.91563862  0.07371909  0.22053971    -0.08500
C1597       C  0.95027655  0.11426468  0.20920755     0.30400
C1598       C  0.92965088  0.12970078  0.19618374    -0.20500
C1599       C  0.87448188  0.10543466  0.19437144    -0.08500
C1600       C  0.83990351  0.06432263  0.20540105     0.30400
F1601       F  0.78629268  0.04043288  0.20389363    -0.19000
H1602       H  0.83271723  0.01644029  0.22660460     0.18700
H1603       H  0.95671898  0.16205041  0.18788074     0.18700
F1604       F  0.00397266  0.13862115  0.21057486    -0.19000
C1605       C  0.72805559  0.15077802  0.20650033    -0.20500
C1606       C  0.72764399  0.11425230  0.19505471    -0.08500
C1607       C  0.68821485  0.05891245  0.19620121     0.30400
C1608       C  0.65049390  0.04042131  0.20891099    -0.20500
C1609       C  0.65133128  0.07688429  0.22056321    -0.08500
C1610       C  0.69000177  0.13252061  0.21907075     0.30400
F1611       F  0.69224279  0.16895569  0.23006712    -0.19000
H1612       H  0.75864460  0.19352137  0.20586196     0.18700
H1613       H  0.62049503  0.99745341  0.20963398     0.18700
F1614       F  0.68751477  0.02257350  0.18549026    -0.19000
C1615       C  0.52927105  0.36792116  0.33054986    -0.20500
C1616       C  0.58409837  0.39442342  0.33378621    -0.08500
C1617       C  0.62049230  0.42672453  0.32127114     0.30400
C1618       C  0.60204495  0.43267052  0.30595000    -0.20500
C1619       C  0.54717994  0.40719273  0.30290219    -0.08500
C1620       C  0.51089554  0.37455047  0.31536131     0.30400
F1621       F  0.45749232  0.34935708  0.31291429    -0.19000
H1622       H  0.50049822  0.34191297  0.33981755     0.18700
H1623       H  0.63070776  0.45888289  0.29668905     0.18700
F1624       F  0.67388725  0.45126598  0.32362274    -0.19000
C1625       C  0.60861214  0.12411323  0.31666416    -0.20500
C1626       C  0.58383433  0.13548443  0.30369398    -0.08500
C1627       C  0.56672940  0.17195712  0.30649761     0.30400
C1628       C  0.57346336  0.19559401  0.32200584    -0.20500
C1629       C  0.59809979  0.18412510  0.33494540    -0.08500
C1630       C  0.61611951  0.14848897  0.33209626     0.30400
F1631       F  0.64008531  0.13650471  0.34428392    -0.19000
H1632       H  0.62138624  0.09543269  0.31494657     0.18700
H1633       H  0.56051178  0.22411612  0.32377316     0.18700
F1634       F  0.54163326  0.18322198  0.29450555    -0.19000
C1635       C  0.78658132  0.37699906  0.32115271    -0.20500
C1636       C  0.80282665  0.41374681  0.33434232    -0.08500
C1637       C  0.84278275  0.46823158  0.33177213     0.30400
C1638       C  0.86804957  0.48488743  0.31644498    -0.20500
C1639       C  0.85324241  0.44769846  0.30335748    -0.08500
C1640       C  0.81108830  0.39382856  0.30571736     0.30400
F1641       F  0.79538426  0.35673219  0.29344736    -0.19000
H1642       H  0.75428026  0.33518103  0.32275507     0.18700
H1643       H  0.90058053  0.52664034  0.31497427     0.18700
F1644       F  0.85855530  0.50481088  0.34420344    -0.19000
C1645       C  0.79059089  0.03201806  0.44388616    -0.20500
C1646       C  0.77660302  0.07146960  0.44349776    -0.08500
C1647       C  0.74607364  0.07236038  0.43023402     0.30400
C1648       C  0.73098246  0.53519405  0.41737741    -0.20500
C1649       C  0.74439460  0.49536970  0.41786909    -0.08500
C1650       C  0.77381249  0.99355256  0.43135819     0.30400
F1651       F  0.78750416  0.95539362  0.43216843    -0.19000
H1652       H  0.81564274  0.03183548  0.45365261     0.18700
H1653       H  0.70699166  0.53615121  0.40738130     0.18700
F1654       F  0.73141316  0.10973291  0.42959346    -0.19000
C1655       C  0.93099994  0.17911107  0.43249914    -0.20500
C1656       C  0.93245440  0.21670123  0.44373180    -0.08500
C1657       C  0.96909010  0.27230504  0.44160502     0.30400
C1658       C  0.00407523  0.29004227  0.42828657    -0.20500
C1659       C  0.50227901  0.25253690  0.41691594    -0.08500
C1660       C  0.96589139  0.19686505  0.41912440     0.30400
F1661       F  0.46563839  0.15980535  0.40881633    -0.19000
H1662       H  0.90202935  0.13602640  0.43398113     0.18700
H1663       H  0.53281885  0.33315813  0.42680877     0.18700
F1664       F  0.96940342  0.30929819  0.45194745    -0.19000
C1665       C  0.79878074  0.27786275  0.41890216    -0.20500
C1666       C  0.74370681  0.25590626  0.41845668    -0.08500
C1667       C  0.71133560  0.22149570  0.43134402     0.30400
C1668       C  0.73377430  0.20786385  0.44419548    -0.20500
C1669       C  0.78878164  0.22927143  0.44452427    -0.08500
C1670       C  0.82130638  0.26501681  0.43193409     0.30400
F1671       F  0.87481050  0.28677599  0.43214440    -0.19000
H1672       H  0.82441071  0.30594388  0.40938522     0.18700
H1673       H  0.70796544  0.17874788  0.45346708     0.18700
F1674       F  0.65781586  0.20003001  0.43125714    -0.19000
Zn1675     Zn  0.69614319  0.90735087  0.37109392     1.49700
Zn1676     Zn  0.70145393  0.79783808  0.37137497     1.49400
Zn1677     Zn  0.66227070  0.83148291  0.40162925     1.49100
Zn1678     Zn  0.58886162  0.78923049  0.37062750     1.49500
O1679       O  0.66221503  0.83154576  0.37826306    -1.83300
O1680       O  0.75851529  0.92604520  0.35664261    -0.73900
O1681       O  0.73354695  0.77907854  0.39085722    -0.73700
O1682       O  0.70459429  0.90374564  0.41110598    -0.73200
O1683       O  0.75546196  0.84740870  0.35489217    -0.73900
O1684       O  0.71856478  0.96057086  0.39046122    -0.73500
O1685       O  0.68966052  0.78931613  0.41136560    -0.74100
O1686       O  0.53555603  0.75920731  0.38962606    -0.73500
O1687       O  0.65648743  0.73276934  0.35703076    -0.74200
O1688       O  0.59151849  0.80166545  0.41035944    -0.73600
O1689       O  0.58090952  0.73227861  0.35496042    -0.74100
O1690       O  0.57370431  0.83389183  0.35529927    -0.74000
O1691       O  0.64906798  0.91464476  0.35455914    -0.73800
C1692       C  0.77238035  0.89563210  0.34988127     0.78000
C1693       C  0.72078781  0.77494345  0.40609115     0.78500
C1694       C  0.72180468  0.95130847  0.40572360     0.77400
C1695       C  0.54485982  0.77205525  0.40482151     0.77800
C1696       C  0.61159330  0.71625315  0.35022228     0.78900
C1697       C  0.60273917  0.88105367  0.34900561     0.78000
Zn1698     Zn  0.91869542  0.95744503  0.25400043     1.49700
Zn1699     Zn  0.53205729  0.57178601  0.25360494     1.49400
Zn1700     Zn  0.99491138  0.99412066  0.28164464     1.49100
Zn1701     Zn  0.52933892  0.95861999  0.25363959     1.49500
O1702       O  0.99327405  0.99553117  0.25890632    -1.83300
O1703       O  0.90656641  0.50647891  0.23931895    -0.73900
O1704       O  0.55424332  0.61579761  0.27536757    -0.73700
O1705       O  0.93731837  0.99968093  0.29122542    -0.73200
O1706       O  0.98460270  0.58529373  0.23875462    -0.73900
O1707       O  0.87391227  0.93679079  0.27543486    -0.73500
O1708       O  0.56172758  0.55525659  0.28993017    -0.74100
O1709       O  0.55468196  0.93797782  0.27474060    -0.73500
O1710       O  0.59482298  0.58714805  0.23925097    -0.74200
O1711       O  0.48816149  0.92717998  0.29015401    -0.73600
O1712       O  0.58965457  0.50724396  0.23843972    -0.74100
O1713       O  0.97919951  0.89482325  0.23982673    -0.74000
O1714       O  0.90290773  0.89397485  0.23958661    -0.73800
C1715       C  0.93661969  0.55476859  0.23379093     0.78000
C1716       C  0.56757596  0.60178467  0.28867944     0.78500
C1717       C  0.88907412  0.96279922  0.28905297     0.77400
C1718       C  0.52847222  0.92296179  0.28828729     0.77800
C1719       C  0.61035474  0.55641845  0.23363870     0.78900
C1720       C  0.93186563  0.87597008  0.23454372     0.78000
C1721       C  0.66796995  0.83951532  0.81229159     0.46300
H1722       H  0.66745942  0.83928965  0.82598675    -0.02700
C1723       C  0.66921127  0.83994806  0.78020038     0.46400
H1724       H  0.67004460  0.84029071  0.76645599    -0.02700
C1725       C  0.64193094  0.87053585  0.80414267    -0.16400
C1726       C  0.72612835  0.86739833  0.80452804    -0.16200
C1727       C  0.63653616  0.78050787  0.80441812    -0.16500
C1728       C  0.64391210  0.86955286  0.78722873    -0.16500
C1729       C  0.72425030  0.86620234  0.78763510    -0.16100
C1730       C  0.63809356  0.78317052  0.78746705    -0.16400
C1731       C  0.00124553  0.00077397  0.82494813     0.46300
H1732       H  0.00185369  0.00186207  0.81125447    -0.02700
C1733       C  0.99977928  0.99822568  0.85698675     0.46400
H1734       H  0.99889799  0.99744517  0.87072424    -0.02700
C1735       C  0.53380976  0.55906983  0.83313922    -0.16400
C1736       C  0.94319043  0.97402751  0.83268435    -0.16200
C1737       C  0.52571252  0.96775349  0.83280276    -0.16500
C1738       C  0.53230433  0.55496821  0.85005508    -0.16500
C1739       C  0.94504547  0.97431350  0.84957499    -0.16100
C1740       C  0.52334039  0.96728434  0.84977174    -0.16400
C1741       C  0.66786317  0.83253478  0.52400725     0.46300
H1742       H  0.66784143  0.83134110  0.53773816    -0.02700
C1743       C  0.66728678  0.83462466  0.49195562     0.46400
H1744       H  0.66719432  0.83561755  0.47826232    -0.02700
C1745       C  0.69831138  0.88956154  0.51701928    -0.16400
C1746       C  0.69263385  0.80333008  0.51647864    -0.16200
C1747       C  0.61245172  0.80671107  0.51694879    -0.16500
C1748       C  0.69892742  0.89297891  0.50010150    -0.16500
C1749       C  0.69388833  0.80358918  0.49958023    -0.16100
C1750       C  0.60957600  0.80638448  0.50003439    -0.16400
C1751       C  0.83398378  0.67253523  0.48033042     0.46300
H1752       H  0.83394554  0.67157690  0.49402506    -0.02700
C1753       C  0.83356583  0.67442252  0.44826307     0.46400
H1754       H  0.83390269  0.67552004  0.43452603    -0.02700
C1755       C  0.80902682  0.70506139  0.47265999    -0.16400
C1756       C  0.89161981  0.69933855  0.47232016    -0.16200
C1757       C  0.80095138  0.61415911  0.47217142    -0.16500
C1758       C  0.81084406  0.70571923  0.45576221    -0.16500
C1759       C  0.88858459  0.69823725  0.45544055    -0.16100
C1760       C  0.80120029  0.61742648  0.45521782    -0.16400
Zn1761     Zn  0.83499610  0.67171945  0.57056704     1.49700
Zn1762     Zn  0.90777030  0.71304404  0.60107350     1.49400
Zn1763     Zn  0.79188665  0.69911960  0.60049382     1.49100
Zn1764     Zn  0.80320824  0.59466051  0.60090811     1.49500
O1765       O  0.83459963  0.66953775  0.59384221    -1.83300
O1766       O  0.90468437  0.69404394  0.56155718    -0.73900
O1767       O  0.91369288  0.76882925  0.61677433    -0.73700
O1768       O  0.76299698  0.72110869  0.58105506    -0.73200
O1769       O  0.95997374  0.74281763  0.58176570    -0.73900
O1770       O  0.81489897  0.72121808  0.56120795    -0.73500
O1771       O  0.83423105  0.76082081  0.61580505    -0.74100
O1772       O  0.74404625  0.57564724  0.61677688    -0.73500
O1773       O  0.92526721  0.66948839  0.61610875    -0.74200
O1774       O  0.73496208  0.64747770  0.61589061    -0.73600
O1775       O  0.85359857  0.58618837  0.61546736    -0.74100
O1776       O  0.77751806  0.54390799  0.58137218    -0.74000
O1777       O  0.78599915  0.60060709  0.56123182    -0.73800
C1778       C  0.95125025  0.72642707  0.56684511     0.78000
C1779       C  0.88017489  0.78033459  0.62217184     0.78500
C1780       C  0.78027680  0.73126286  0.56623100     0.77400
C1781       C  0.72406602  0.60237019  0.62223051     0.77800
C1782       C  0.89897545  0.62073525  0.62140740     0.78900
C1783       C  0.77069242  0.55322959  0.56644206     0.78000
Zn1784     Zn  0.50227388  0.50320796  0.68942632     1.49700
Zn1785     Zn  0.96290186  0.92719549  0.71787542     1.49400
Zn1786     Zn  0.57577973  0.54091854  0.71736753     1.49100
Zn1787     Zn  0.96631333  0.54040929  0.71675654     1.49500
O1788       O  0.50185725  0.50268114  0.71216974    -1.83300
O1789       O  0.93556975  0.94258003  0.68087997    -0.73900
O1790       O  0.51046098  0.91231631  0.73196563    -0.73700
O1791       O  0.62105973  0.56317582  0.69617054    -0.73200
O1792       O  0.93746684  0.88109391  0.69681489    -0.73900
O1793       O  0.56015629  0.49566017  0.68101989    -0.73500
O1794       O  0.58815580  0.99137142  0.73133202    -0.74100
O1795       O  0.51548239  0.60487440  0.73054367    -0.73500
O1796       O  0.90235591  0.91449901  0.73258114    -0.74200
O1797       O  0.59039547  0.60327383  0.73203031    -0.73600
O1798       O  0.90468255  0.99292685  0.73151845    -0.74100
O1799       O  0.94348646  0.56056125  0.69525358    -0.74000
O1800       O  0.01081194  0.57067949  0.68029405    -0.73800
C1801       C  0.92555037  0.89472644  0.68319437     0.78000
C1802       C  0.55881377  0.94265475  0.73657059     0.78500
C1803       C  0.60742473  0.53503270  0.68295736     0.77400
C1804       C  0.56197430  0.62264032  0.73638399     0.77800
C1805       C  0.88551137  0.94502574  0.73729886     0.78900
C1806       C  0.97063093  0.57529828  0.68189428     0.78000
C1807       C  0.82814835  0.66090336  0.15841201     0.46300
H1808       H  0.82796345  0.66139653  0.14471640    -0.02700
C1809       C  0.82853300  0.65993508  0.19051426     0.46400
H1810       H  0.82889723  0.65972026  0.20425508    -0.02700
C1811       C  0.77047325  0.63327593  0.16649405    -0.16400
C1812       C  0.85435587  0.62959732  0.16617759    -0.16200
C1813       C  0.85994056  0.71963856  0.16632797    -0.16500
C1814       C  0.77291417  0.63408396  0.18343215    -0.16500
C1815       C  0.85287490  0.62973635  0.18309528    -0.16100
C1816       C  0.85925306  0.71678389  0.18322568    -0.16400
C1817       C  0.99705602  0.00170507  0.11401807     0.46300
H1818       H  0.99711223  0.00226029  0.10027510    -0.02700
C1819       C  0.99644142  0.50000590  0.14612502     0.46400
H1820       H  0.99631856  0.49929444  0.15982006    -0.02700
C1821       C  0.97134504  0.53056770  0.12140795    -0.15800
C1822       C  0.96703914  0.94469974  0.12117246    -0.16200
C1823       C  0.55227650  0.52823136  0.12121618    -0.16500
C1824       C  0.96953400  0.53057378  0.13831280    -0.16500
C1825       C  0.96565567  0.94144605  0.13806240    -0.16100
C1826       C  0.55436318  0.52861750  0.13815132    -0.16400
Zn1827     Zn  0.63714267  0.75971301  0.93479559     1.49700
Zn1828     Zn  0.66821408  0.83399756  0.90372357     1.49400
Zn1829     Zn  0.62568534  0.86430832  0.93363247     1.49100
Zn1830     Zn  0.74210619  0.87910791  0.93414351     1.49500
O1831       O  0.66836048  0.83434168  0.92704950    -1.83300
O1832       O  0.61533839  0.70607326  0.91585768    -0.73900
O1833       O  0.64210978  0.87747904  0.89367014    -0.73700
O1834       O  0.56689632  0.81196925  0.94856464    -0.73200
O1835       O  0.62386266  0.76126907  0.89524981    -0.73900
O1836       O  0.57507771  0.73971533  0.94956276    -0.73500
O1837       O  0.59862954  0.88831743  0.91414154    -0.74100
O1838       O  0.74921160  0.93713106  0.94910346    -0.73500
O1839       O  0.73850775  0.86110131  0.89444269    -0.74200
O1840       O  0.66809552  0.92517700  0.94923469    -0.73600
O1841       O  0.79434362  0.90820478  0.91473732    -0.74100
O1842       O  0.75943839  0.83755829  0.95021997    -0.74000
O1843       O  0.68595184  0.75534859  0.95097729    -0.73800
C1844       C  0.60923621  0.71441729  0.90076003     0.78000
C1845       C  0.61197500  0.89315804  0.89895647     0.78500
C1846       C  0.55433205  0.76606656  0.95471939     0.77400
C1847       C  0.71508966  0.94700921  0.95498113     0.77800
C1848       C  0.78514131  0.89320721  0.89968998     0.78900
C1849       C  0.73161365  0.79036098  0.95660882     0.78000
Zn1850     Zn  0.82993905  0.66556512  0.02296778     1.49700
Zn1851     Zn  0.90683229  0.70248309  0.05053796     1.49400
Zn1852     Zn  0.79787989  0.70350884  0.05144166     1.49100
Zn1853     Zn  0.79262026  0.58967274  0.05141602     1.49500
O1854       O  0.83228122  0.66535408  0.04575855    -1.83300
O1855       O  0.88812431  0.66059479  0.01318116    -0.73900
O1856       O  0.92453696  0.76581194  0.06527650    -0.73700
O1857       O  0.77346644  0.72648521  0.03088392    -0.73200
O1858       O  0.95045638  0.72501209  0.02895121    -0.73900
O1859       O  0.83565014  0.73196977  0.01428729    -0.73500
O1860       O  0.84918166  0.76661124  0.06498817    -0.74100
O1861       O  0.73015271  0.57562558  0.06558008    -0.73500
O1862       O  0.91871680  0.65241804  0.06464360    -0.74200
O1863       O  0.73748319  0.65646223  0.06671293    -0.73600
O1864       O  0.83909595  0.57566930  0.06623413    -0.74100
O1865       O  0.77051393  0.54416288  0.03016280    -0.74000
O1866       O  0.76254871  0.60373845  0.01520050    -0.73800
C1867       C  0.93570321  0.69916358  0.01531800     0.78000
C1868       C  0.89642087  0.78488413  0.07020184     0.78500
C1869       C  0.79816109  0.74015255  0.01708767     0.77400
C1870       C  0.71558917  0.60699701  0.07130749     0.77800
C1871       C  0.88776183  0.60491155  0.07062120     0.78900
C1872       C  0.75675486  0.55733106  0.01681142     0.78000
C1873       C  0.71150578  0.73975274  0.98318984    -0.20500
C1874       C  0.74976025  0.77803666  0.97210263    -0.08500
C1875       C  0.80348115  0.80839939  0.97699804     0.30400
C1876       C  0.81865247  0.79863172  0.99233683    -0.20500
C1877       C  0.78048426  0.75966808  0.00322079    -0.08500
C1878       C  0.72658143  0.73091486  0.99866635     0.30400
F1879       F  0.68897204  0.69168011  0.00868394    -0.19000
H1880       H  0.66964996  0.71685169  0.97994763     0.18700
H1881       H  0.86054395  0.82036148  0.99554611     0.18700
F1882       F  0.84153986  0.84651380  0.96684541    -0.19000
C1883       C  0.76022463  0.97345460  0.98210088    -0.20500
C1884       C  0.72766167  0.97820983  0.97034825    -0.08500
C1885       C  0.70048680  0.50466178  0.97473099     0.30400
C1886       C  0.70743398  0.52722920  0.99039396    -0.20500
C1887       C  0.74040032  0.52289911  0.00207582    -0.08500
C1888       C  0.76638971  0.99520344  0.99786282     0.30400
F1889       F  0.79965859  0.99152098  0.00866741    -0.19000
H1890       H  0.77999426  0.95167020  0.97922072     0.18700
H1891       H  0.68797066  0.54929709  0.99329820     0.18700
F1892       F  0.66803111  0.50923926  0.96380886    -0.19000
C1893       C  0.01743200  0.78490471  0.97953535    -0.20500
C1894       C  0.52051561  0.74670025  0.96966402    -0.08500
C1895       C  0.49835747  0.69314118  0.97562530     0.30400
C1896       C  0.47306645  0.67835350  0.99102190    -0.20500
C1897       C  0.97102384  0.71696905  0.00090517    -0.08500
C1898       C  0.99334120  0.77037658  0.99505252     0.30400
F1899       F  0.98930044  0.80778177  0.00395460    -0.19000
H1900       H  0.03487200  0.82664639  0.97543869     0.18700
H1901       H  0.45442443  0.63652111  0.99517210     0.18700
F1902       F  0.50080591  0.65503499  0.96659393    -0.19000
C1903       C  0.96988974  0.86901719  0.10767660    -0.20500
C1904       C  0.94507572  0.89887161  0.10964690    -0.08500
C1905       C  0.90611948  0.89248616  0.09840389     0.30400
C1906       C  0.89197375  0.85665188  0.08532679    -0.20500
C1907       C  0.91674215  0.82675152  0.08311499    -0.08500
C1908       C  0.95598948  0.83311545  0.09445339     0.30400
F1909       F  0.98019539  0.80419607  0.09296219    -0.19000
H1910       H  0.00118415  0.87493456  0.11605342     0.18700
H1911       H  0.86146163  0.85235188  0.07688259     0.18700
F1912       F  0.88236991  0.92176906  0.09992657    -0.19000
C1913       C  0.96369950  0.61055452  0.08599792    -0.20500
C1914       C  0.90840074  0.58514129  0.08375885    -0.08500
C1915       C  0.87373730  0.54452091  0.09508396     0.30400
C1916       C  0.89442803  0.52954624  0.10819276    -0.20500
C1917       C  0.94961557  0.55421514  0.11005171    -0.08500
C1918       C  0.98413308  0.59495641  0.09892564     0.30400
F1919       F  0.53773448  0.61898037  0.10042034    -0.19000
H1920       H  0.99130257  0.64225664  0.07761724     0.18700
H1921       H  0.86743165  0.49720385  0.11651366     0.18700
F1922       F  0.82000077  0.51958908  0.09362487    -0.19000
C1923       C  0.59753257  0.51234388  0.09817721    -0.20500
C1924       C  0.59784562  0.54854872  0.10971669    -0.08500
C1925       C  0.63706104  0.60399218  0.10864912     0.30400
C1926       C  0.67492233  0.62282237  0.09596786    -0.20500
C1927       C  0.67425059  0.58656793  0.08426449    -0.08500
C1928       C  0.63549150  0.53094018  0.08560644     0.30400
F1929       F  0.63313261  0.49478777  0.07447376    -0.19000
H1930       H  0.56701090  0.46955630  0.09872842     0.18700
H1931       H  0.70489826  0.66581049  0.09532023     0.18700
F1932       F  0.63741739  0.64005306  0.11940390    -0.19000
C1933       C  0.93104107  0.63533217  0.14975116    -0.20500
C1934       C  0.88095780  0.60325970  0.15741234    -0.08500
C1935       C  0.86225012  0.54735487  0.15977931     0.30400
C1936       C  0.89246623  0.52462461  0.15461253    -0.20500
C1937       C  0.94263196  0.55674358  0.14699709    -0.08500
C1938       C  0.96124828  0.61260797  0.14458514     0.30400
F1939       F  0.00896025  0.64542352  0.13707375    -0.19000
H1940       H  0.94764437  0.67859204  0.14819968     0.18700
H1941       H  0.87578227  0.98130183  0.15600571     0.18700
F1942       F  0.81447117  0.51452535  0.16725236    -0.19000
C1943       C  0.94194018  0.81335414  0.16099293    -0.20500
C1944       C  0.88770880  0.77471185  0.15766362    -0.08500
C1945       C  0.85887958  0.79287817  0.14870450     0.30400
C1946       C  0.88365963  0.84754792  0.14322762    -0.20500
C1947       C  0.93784477  0.88621508  0.14661466    -0.08500
C1948       C  0.96667027  0.86803587  0.15555360     0.30400
F1949       F  0.51933505  0.90267845  0.15856220    -0.19000
H1950       H  0.96519758  0.80114302  0.16808518     0.18700
H1951       H  0.86045505  0.85977061  0.13610931     0.18700
F1952       F  0.80617689  0.75830401  0.14574302    -0.19000
C1953       C  0.68134829  0.62640822  0.16230354    -0.20500
C1954       C  0.71696810  0.60946230  0.15786203    -0.08500
C1955       C  0.69701927  0.56350646  0.14771113     0.30400
C1956       C  0.64335570  0.53539082  0.14239050    -0.20500
C1957       C  0.60774028  0.55232854  0.14683656    -0.08500
C1958       C  0.62768416  0.59830025  0.15697479     0.30400
F1959       F  0.59584407  0.61729915  0.16126658    -0.19000
H1960       H  0.69506233  0.66132999  0.17022763     0.18700
H1961       H  0.62965170  0.50050760  0.13444859     0.18700
F1962       F  0.72885894  0.54453833  0.14338729    -0.19000
C1963       C  0.97137687  0.64166604  0.64162523    -0.20500
C1964       C  0.91886076  0.60627934  0.63613984    -0.08500
C1965       C  0.88335272  0.56227817  0.64636277     0.30400
C1966       C  0.89981771  0.55501321  0.66180693    -0.20500
C1967       C  0.95206306  0.59042282  0.66721177    -0.08500
C1968       C  0.98810076  0.63340700  0.65692303     0.30400
F1969       F  0.53929163  0.66759394  0.66174530    -0.19000
H1970       H  0.99939973  0.67619656  0.63415162     0.18700
H1971       H  0.87216312  0.52042267  0.66933993     0.18700
F1972       F  0.83220495  0.52701685  0.64172722    -0.19000
C1973       C  0.92155959  0.80345193  0.64983540    -0.20500
C1974       C  0.89200490  0.81094758  0.63761417    -0.08500
C1975       C  0.86803111  0.84075300  0.64136114     0.30400
C1976       C  0.87585809  0.86483953  0.65682025    -0.20500
C1977       C  0.90645257  0.85835311  0.66890826    -0.08500
C1978       C  0.92835614  0.82646253  0.66540990     0.30400
F1979       F  0.95913217  0.82036087  0.67663872    -0.19000
H1980       H  0.93884305  0.77899290  0.64741161     0.18700
H1981       H  0.85935022  0.89002689  0.65920171     0.18700
F1982       F  0.83821764  0.84771018  0.62997417    -0.19000
C1983       C  0.66178434  0.52884372  0.64156215    -0.20500
C1984       C  0.69326229  0.58429857  0.63764890    -0.08500
C1985       C  0.70147282  0.62309442  0.64964114     0.30400
C1986       C  0.67701544  0.60649590  0.66505870    -0.20500
C1987       C  0.64337228  0.55112891  0.66868544    -0.08500
C1988       C  0.63641197  0.51223960  0.65688671     0.30400
F1989       F  0.60421512  0.45820900  0.66006253    -0.19000
H1990       H  0.65635885  0.49844772  0.63268177     0.18700
H1991       H  0.68230673  0.63704770  0.67385825     0.18700
F1992       F  0.73425152  0.67716372  0.64662766    -0.19000
C1993       C  0.70435371  0.97278392  0.52822427    -0.20500
C1994       C  0.72046803  0.93496334  0.52875453    -0.08500
C1995       C  0.75070503  0.93481701  0.54217755     0.30400
C1996       C  0.76402828  0.97148552  0.55496472    -0.20500
C1997       C  0.74870812  0.50970393  0.55430204    -0.08500
C1998       C  0.71932297  0.51077773  0.54073542     0.30400
F1999       F  0.70434254  0.54792842  0.53978916    -0.19000
H2000       H  0.67935445  0.97211405  0.51830663     0.18700
H2001       H  0.78810449  0.97128719  0.56505604     0.18700
F2002       F  0.76727492  0.89899325  0.54297178    -0.19000
C2003       C  0.57110481  0.82101020  0.54128683    -0.20500
C2004       C  0.56797752  0.78609127  0.52873152    -0.08500
C2005       C  0.52825884  0.73085450  0.52934357     0.30400
C2006       C  0.49120449  0.71128840  0.54218314    -0.20500
C2007       C  0.99452083  0.74625376  0.55479458    -0.08500
C2008       C  0.53504038  0.80120566  0.55435880     0.30400
F2009       F  0.03854990  0.83606243  0.56618235    -0.19000
H2010       H  0.60232413  0.86362643  0.54109488     0.18700
H2011       H  0.45997424  0.66866957  0.54235604     0.18700
F2012       F  0.52656846  0.69566669  0.51796712    -0.19000
C2013       C  0.68179353  0.74313117  0.53984343    -0.20500
C2014       C  0.71533449  0.78056584  0.52778637    -0.08500
C2015       C  0.77067699  0.80398602  0.52896008     0.30400
C2016       C  0.79183351  0.78885927  0.54184621    -0.20500
C2017       C  0.75822492  0.75173614  0.55400064    -0.08500
C2018       C  0.70299282  0.72897955  0.55293496     0.30400
F2019       F  0.66947130  0.69180866  0.56422299    -0.19000
H2020       H  0.63911949  0.72600237  0.53931786     0.18700
H2021       H  0.83458165  0.80668925  0.54249333     0.18700
F2022       F  0.80433921  0.84390740  0.51836104    -0.19000
C2023       C  0.69640517  0.96499762  0.48270345    -0.20500
C2024       C  0.72627640  0.94801771  0.49155629    -0.08500
C2025       C  0.78017569  0.98769046  0.49503282     0.30400
C2026       C  0.80326906  0.54235914  0.48974049    -0.20500
C2027       C  0.77349527  0.55925691  0.48078925    -0.08500
C2028       C  0.71956375  0.51965904  0.47736733     0.30400
F2029       F  0.68899168  0.53388713  0.46881124    -0.19000
H2030       H  0.65460243  0.93626740  0.48030239     0.18700
H2031       H  0.84502792  0.57112913  0.49219838     0.18700
F2032       F  0.81068721  0.97359418  0.50368920    -0.19000
C2033       C  0.98157039  0.70740545  0.47630658    -0.20500
C2034       C  0.94574822  0.72408735  0.48078254    -0.08500
C2035       C  0.96613270  0.77071403  0.49070164     0.30400
C2036       C  0.51999271  0.79905198  0.49596367    -0.20500
C2037       C  0.55571773  0.78224950  0.49149645    -0.08500
C2038       C  0.53550484  0.73598323  0.48145460     0.30400
F2039       F  0.56734892  0.71702380  0.47713005    -0.19000
H2040       H  0.96776631  0.67218832  0.46850461     0.18700
H2041       H  0.53381749  0.83413344  0.50383258     0.18700
F2042       F  0.93453589  0.79013547  0.49484908    -0.19000
C2043       C  0.70118549  0.72189938  0.49315806    -0.20500
C2044       C  0.72058180  0.77781009  0.49079841    -0.08500
C2045       C  0.77149377  0.80998749  0.48363255     0.30400
C2046       C  0.80166274  0.78683741  0.47900059    -0.20500
C2047       C  0.78229894  0.73092186  0.48138885    -0.08500
C2048       C  0.73120149  0.69868656  0.48842776     0.30400
F2049       F  0.70917414  0.64418568  0.49002893    -0.19000
H2050       H  0.66273312  0.69617963  0.49900107     0.18700
H2051       H  0.84010572  0.81255392  0.47315160     0.18700
F2052       F  0.79321204  0.86438980  0.48182215    -0.19000
C2053       C  0.89950088  0.98972409  0.87249457    -0.20500
C2054       C  0.89971980  0.95369397  0.86098056    -0.08500
C2055       C  0.86361190  0.89771666  0.86264649     0.30400
C2056       C  0.82749789  0.87810305  0.87574073    -0.20500
C2057       C  0.82785597  0.91405697  0.88744305    -0.08500
C2058       C  0.86372114  0.97009773  0.88567884     0.30400
F2059       F  0.86281304  0.00576308  0.89631734    -0.19000
H2060       H  0.92789006  0.53289719  0.87132050     0.18700
H2061       H  0.79935341  0.83473225  0.87684233     0.18700
F2062       F  0.86519967  0.86208087  0.85216099    -0.19000
C2063       C  0.59948299  0.96129538  0.86078504    -0.20500
C2064       C  0.54542494  0.94447208  0.86144141    -0.08500
C2065       C  0.51414014  0.91257527  0.87488279     0.30400
C2066       C  0.53675481  0.89832194  0.88751464    -0.20500
C2067       C  0.59054258  0.91450735  0.88676291    -0.08500
C2068       C  0.62179417  0.94571816  0.87320706     0.30400
F2069       F  0.67412932  0.96198722  0.87214788    -0.19000
H2070       H  0.62489015  0.48790547  0.85090382     0.18700
H2071       H  0.51181403  0.87316355  0.89763216     0.18700
F2072       F  0.96156367  0.89527015  0.87582059    -0.19000
C2073       C  0.58851896  0.59845183  0.87449913    -0.20500
C2074       C  0.55585909  0.59948945  0.86202206    -0.08500
C2075       C  0.53798305  0.63573876  0.86305696     0.30400
C2076       C  0.55388805  0.67154736  0.87622934    -0.20500
C2077       C  0.58662840  0.67065113  0.88870714    -0.08500
C2078       C  0.60369735  0.63366459  0.88785489     0.30400
F2079       F  0.63655081  0.63305596  0.89950804    -0.19000
H2080       H  0.60136539  0.56950768  0.87400100     0.18700
H2081       H  0.54067727  0.70019692  0.87671248     0.18700
F2082       F  0.00364184  0.63507503  0.85174733    -0.19000
C2083       C  0.79957233  0.94287033  0.77251566    -0.20500
C2084       C  0.77018866  0.88744599  0.77639884    -0.08500
C2085       C  0.77858417  0.85105824  0.76750716     0.30400
C2086       C  0.81588394  0.86994624  0.75474578    -0.20500
C2087       C  0.84476245  0.92538247  0.75046968    -0.08500
C2088       C  0.83670772  0.96195686  0.75964897     0.30400
F2089       F  0.86479417  0.01612745  0.75631828    -0.19000
H2090       H  0.79253138  0.97104612  0.77913801     0.18700
H2091       H  0.82163251  0.84098847  0.74807109     0.18700
F2092       F  0.75006631  0.79709225  0.77103236    -0.19000
C2093       C  0.65597097  0.93272703  0.76465379    -0.20500
C2094       C  0.62129904  0.89125248  0.77551501    -0.08500
C2095       C  0.56610274  0.86457794  0.77306060     0.30400
C2096       C  0.54591973  0.88010541  0.75995436    -0.20500
C2097       C  0.58062445  0.92254689  0.74919854    -0.08500
C2098       C  0.63603281  0.94871876  0.75168299     0.30400
F2099       F  0.67121121  0.48937338  0.74147106    -0.19000
H2100       H  0.69872661  0.95219093  0.76611545     0.18700
H2101       H  0.50313081  0.85946171  0.75837528     0.18700
F2102       F  0.53201367  0.82231827  0.78293518    -0.19000
C2103       C  0.61641001  0.66507557  0.76159194    -0.20500
C2104       C  0.58158007  0.66393749  0.74946303    -0.08500
C2105       C  0.56221840  0.69908834  0.75088952     0.30400
C2106       C  0.57864161  0.73556477  0.76393667    -0.20500
C2107       C  0.61387688  0.73714610  0.77589002    -0.08500
C2108       C  0.63228851  0.70125317  0.77478442     0.30400
F2109       F  0.66715883  0.70267341  0.78603829    -0.19000
H2110       H  0.63094732  0.63756812  0.76094879     0.18700
H2111       H  0.56493057  0.76374868  0.76449334     0.18700
F2112       F  0.52859918  0.69932039  0.73945470    -0.19000
C2113       C  0.56896545  0.86577891  0.82240556    -0.20500
C2114       C  0.61471035  0.89684488  0.81260968    -0.08500
C2115       C  0.62848105  0.95065133  0.80856554     0.30400
C2116       C  0.59759828  0.97215469  0.81411170    -0.20500
C2117       C  0.55202257  0.94116229  0.82398180    -0.08500
C2118       C  0.53804972  0.88725572  0.82793395     0.30400
F2119       F  0.49434009  0.85516348  0.83735897    -0.19000
H2120       H  0.55612826  0.82404165  0.82540124     0.18700
H2121       H  0.61057537  0.01397678  0.81118381     0.18700
F2122       F  0.67245283  0.98297424  0.79927709    -0.19000
C2123       C  0.81476683  0.87386498  0.80947137    -0.20500
C2124       C  0.77983300  0.89228823  0.81321337    -0.08500
C2125       C  0.80099101  0.94044775  0.82242955     0.30400
C2126       C  0.85480589  0.96856527  0.82775119    -0.20500
C2127       C  0.88972433  0.95013217  0.82394042    -0.08500
C2128       C  0.86866390  0.90228623  0.81461357     0.30400
F2129       F  0.89965836  0.88171705  0.81099663    -0.19000
H2130       H  0.80028516  0.83734977  0.80224199     0.18700
H2131       H  0.86922581  0.00474627  0.83515356     0.18700
F2132       F  0.77012780  0.96130112  0.82588964    -0.19000
C2133       C  0.61321457  0.65624800  0.82955925    -0.20500
C2134       C  0.56139758  0.61466398  0.82468902    -0.08500
C2135       C  0.53348777  0.62975219  0.81402249     0.30400
C2136       C  0.55659898  0.68416963  0.80850182    -0.20500
C2137       C  0.60860099  0.72559804  0.81323506    -0.08500
C2138       C  0.63630060  0.71070275  0.82405003     0.30400
F2139       F  0.68659567  0.74835567  0.82881536    -0.19000
H2140       H  0.63589319  0.64655255  0.83789412     0.18700
H2141       H  0.53390143  0.69390845  0.80018730     0.18700
F2142       F  0.98299130  0.59230305  0.80938297    -0.19000
C2143       C  0.85701981  0.79210281  0.19712462    -0.20500
C2144       C  0.88236076  0.76302957  0.19463027    -0.08500
C2145       C  0.92317752  0.77066911  0.20527267     0.30400
C2146       C  0.93811826  0.80649089  0.21843429    -0.20500
C2147       C  0.91216575  0.83494660  0.22132608    -0.08500
C2148       C  0.87166332  0.82788725  0.21039933     0.30400
F2149       F  0.84672059  0.85592345  0.21235968    -0.19000
H2150       H  0.82464902  0.78554588  0.18914372     0.18700
H2151       H  0.96989170  0.81166716  0.22644929     0.18700
F2152       F  0.94790225  0.74256180  0.20309367    -0.19000
C2153       C  0.86042309  0.54902964  0.21841248    -0.20500
C2154       C  0.91576282  0.57413435  0.22056266    -0.08500
C2155       C  0.95031380  0.61427456  0.20911940     0.30400
C2156       C  0.92959242  0.62961472  0.19609714    -0.20500
C2157       C  0.87441630  0.60563807  0.19439699    -0.08500
C2158       C  0.83992601  0.56495941  0.20555374     0.30400
F2159       F  0.78631732  0.54138343  0.20416847    -0.19000
H2160       H  0.83289763  0.51750783  0.22685144     0.18700
H2161       H  0.95660742  0.66166534  0.18770468     0.18700
F2162       F  0.00400242  0.63827657  0.21037001    -0.19000
C2163       C  0.72797482  0.65085431  0.20645638    -0.20500
C2164       C  0.72750505  0.61433928  0.19499474    -0.08500
C2165       C  0.68803613  0.55900839  0.19613040     0.30400
C2166       C  0.65035694  0.54051232  0.20885305    -0.20500
C2167       C  0.65128488  0.57696447  0.22052736    -0.08500
C2168       C  0.68997283  0.63259347  0.21903995     0.30400
F2169       F  0.69228967  0.66901618  0.23005625    -0.19000
H2170       H  0.75858767  0.69358910  0.20582552     0.18700
H2171       H  0.62032834  0.49755273  0.20957113     0.18700
F2172       F  0.68727229  0.52267915  0.18540133    -0.19000
C2173       C  0.52921329  0.86702894  0.33040283    -0.20500
C2174       C  0.58400421  0.89417118  0.33377093    -0.08500
C2175       C  0.62049533  0.92712024  0.32136172     0.30400
C2176       C  0.60216958  0.93306825  0.30601971    -0.20500
C2177       C  0.54732796  0.90695023  0.30284918    -0.08500
C2178       C  0.51095347  0.87365540  0.31519335     0.30400
F2179       F  0.45757106  0.84784560  0.31261185    -0.19000
H2180       H  0.50037686  0.84052449  0.33958285     0.18700
H2181       H  0.63086965  0.95980424  0.29684626     0.18700
F2182       F  0.67389102  0.95234975  0.32383826    -0.19000
C2183       C  0.60882562  0.62425834  0.31664755    -0.20500
C2184       C  0.58396573  0.63559616  0.30369493    -0.08500
C2185       C  0.56677584  0.67198507  0.30652325     0.30400
C2186       C  0.57346232  0.69553630  0.32204260    -0.20500
C2187       C  0.59816070  0.68408779  0.33496688    -0.08500
C2188       C  0.61631254  0.64857555  0.33208964     0.30400
F2189       F  0.64038161  0.63665261  0.34425944    -0.19000
H2190       H  0.62167061  0.59564358  0.31490778     0.18700
H2191       H  0.56042834  0.72398341  0.32383061     0.18700
F2192       F  0.54162036  0.68322723  0.29454575    -0.19000
C2193       C  0.78687391  0.87699796  0.32129197    -0.20500
C2194       C  0.80288239  0.91389873  0.33443288    -0.08500
C2195       C  0.84263273  0.96843691  0.33181228     0.30400
C2196       C  0.86793612  0.98500243  0.31648505    -0.20500
C2197       C  0.85332422  0.94767034  0.30344746    -0.08500
C2198       C  0.81138846  0.89373285  0.30585811     0.30400
F2199       F  0.79594473  0.85648265  0.29364415    -0.19000
H2200       H  0.75474611  0.83511869  0.32292958     0.18700
H2201       H  0.90032662  0.02680249  0.31497264     0.18700
F2202       F  0.85817002  0.00516008  0.34419416    -0.19000
C2203       C  0.79091627  0.53225148  0.44381201    -0.20500
C2204       C  0.77703153  0.57178212  0.44341223    -0.08500
C2205       C  0.74662574  0.57277509  0.43012462     0.30400
C2206       C  0.73047116  0.03480030  0.41748292    -0.20500
C2207       C  0.74405240  0.99509928  0.41794970    -0.08500
C2208       C  0.77409273  0.49376660  0.43128707     0.30400
F2209       F  0.78765282  0.45550973  0.43211395    -0.19000
H2210       H  0.81588700  0.53199219  0.45359272     0.18700
H2211       H  0.70640888  0.03569330  0.40749901     0.18700
F2212       F  0.73208196  0.61023672  0.42946276    -0.19000
C2213       C  0.93159951  0.67939154  0.43267766    -0.20500
C2214       C  0.93274571  0.71709777  0.44379123    -0.08500
C2215       C  0.96892092  0.77273924  0.44151881     0.30400
C2216       C  0.00373695  0.79040483  0.42815658    -0.20500
C2217       C  0.50222717  0.75279945  0.41690423    -0.08500
C2218       C  0.96633479  0.69706359  0.41926894     0.30400
F2219       F  0.46638995  0.65997800  0.40906193    -0.19000
H2220       H  0.90296433  0.63627018  0.43427442     0.18700
H2221       H  0.53221647  0.83357144  0.42658905     0.18700
F2222       F  0.96891856  0.80979212  0.45175945    -0.19000
C2223       C  0.79851998  0.77750547  0.41882454    -0.20500
C2224       C  0.74346892  0.75569706  0.41846065    -0.08500
C2225       C  0.71124562  0.72150636  0.43140743     0.30400
C2226       C  0.73381654  0.70798488  0.44424657    -0.20500
C2227       C  0.78881162  0.72928465  0.44450138    -0.08500
C2228       C  0.82118039  0.76478170  0.43184149     0.30400
F2229       F  0.87466515  0.78642047  0.43196648    -0.19000
H2230       H  0.82404440  0.80540179  0.40925592     0.18700
H2231       H  0.70811133  0.67904402  0.45357071     0.18700
F2232       F  0.65774246  0.70014849  0.43139337    -0.19000
loop_ 
_geom_bond_atom_site_label_1 
_geom_bond_atom_site_label_2 
_geom_bond_distance 
_geom_bond_site_symmetry_2 
_ccdc_geom_bond_type 
Zn1           O5   1.954       .  S
Zn1           O6   1.997       .  S
Zn1          O10   2.055       .  S
Zn1          O17   2.015       .  S
Zn2           O5   1.944       .  S
Zn2           O7   2.051       .  S
Zn2           O9   1.990       .  S
Zn2          O13   2.013       .  S
Zn3           O5   1.894       .  S
Zn3           O8   1.947       .  S
Zn3          O11   1.941       .  S
Zn3          O14   1.923       .  S
Zn4           O5   1.945       .  S
Zn4          O12   2.037       .  S
Zn4          O15   1.997       .  S
Zn4          O16   1.997       .  S
O6           C18   1.272       .  A
O7           C19   1.277       .  A
O8           C20   1.263       .  A
O9           C18   1.272       .  A
O10          C20   1.278       .  A
O11          C19   1.263       .  A
O12          C21   1.276       .  A
O13          C22   1.273       .  A
O14          C21   1.262       .  A
O15          C22   1.272       .  A
O16          C23   1.272       .  A
O17          C23   1.274       .  A
C18         C520   1.466       .  S
C19         C550   1.463       .  S
C20         C533   1.468       .  S
C21         C543   1.452       .  S
C22         C513   1.475       .  S
C23         C500   1.478       .  S
Zn24         O28   1.914       .  S
Zn24         O33   2.068       .  S
Zn24         O40   2.017       .  S
Zn24        O587   2.006       .  S
Zn25       O1702   1.915   1_445  S
Zn25         O30   2.075       .  S
Zn25         O36   2.026       .  S
Zn25       O1148   2.028   1_455  S
Zn26         O28   1.843       .  S
Zn26         O31   1.947       .  S
Zn26       O1708   1.953       .  S
Zn26       O1153   1.957       .  S
Zn27       O1144   1.907   1_455  S
Zn27         O35   2.071       .  S
Zn27        O596   2.001       .  S
Zn27       O1155   2.000   1_455  S
O28       Zn1699   1.916       .  S
O28       Zn1143   1.907       .  S
O29        Zn582   2.007   1_545  S
O29          C41   1.276       .  A
O30          C42   1.281       .  A
O31          C43   1.265       .  A
O32       Zn1141   2.028       .  S
O32          C41   1.278       .  A
O33          C43   1.280       .  A
O34       Zn1700   1.953   1_445  S
O34          C42   1.265       .  A
O35          C44   1.278       .  A
O36          C45   1.278       .  A
O37       Zn1142   1.957       .  S
O37          C44   1.264   1_655  A
O38        Zn585   2.001   1_545  S
O38          C45   1.275       .  A
O39       Zn1143   2.000       .  S
O39          C46   1.276       .  A
O40          C46   1.277       .  A
C41         C480   1.480       .  S
C42         C510   1.478       .  S
C43         C523   1.474       .  S
C44         C503   1.475       .  S
C45         C493   1.476       .  S
C46         C473   1.477       .  S
C47          H48   1.110       .  S
C47          C53   1.589       .  S
C47          C52   1.589       .  S
C47          C51   1.592       .  S
C49          H50   1.114       .  S
C49          C55   1.510       .  S
C49          C54   1.510       .  S
C49          C56   1.513       .  S
C51          C54   1.373       .  D
C51         C440   1.527       .  S
C52          C55   1.370       .  D
C52         C450   1.525       .  S
C53          C56   1.375       .  D
C53         C463   1.523       .  S
C54         C420   1.471       .  S
C55         C410   1.469       .  S
C56         C433   1.475       .  S
C57          H58   1.110       .  S
C57          C62   1.589       .  S
C57        C1179   1.595       .  S
C57        C1735   1.588       .  S
C59          H60   1.113       .  S
C59          C65   1.507       .  S
C59        C1738   1.507       .  S
C59        C1182   1.508       .  S
C61        C1731   1.588       .  S
C61          C64   1.374       .  D
C61         C460   1.525       .  S
C62          C65   1.370       .  D
C62         C453   1.524       .  S
C63        C1173   1.595       .  S
C63          C66   1.376       .  D
C63         C443   1.526       .  S
C64        C1733   1.507   1_445  S
C64         C400   1.468       .  S
C65         C380   1.467       .  S
C66        C1175   1.508   1_455  S
C66         C390   1.480       .  S
C67          H68   1.113       .  S
C67          C73   1.508       .  S
C67          C72   1.505       .  S
C67          C71   1.509       .  S
C69          H70   1.110       .  S
C69          C75   1.589       .  S
C69          C74   1.584       .  S
C69          C76   1.589       .  S
C71          C74   1.374       .  D
C71         C320   1.472       .  S
C72          C75   1.370       .  D
C72         C340   1.473       .  S
C73          C76   1.373       .  D
C73         C330   1.469       .  S
C74         C350   1.517       .  S
C75         C370   1.515       .  S
C76         C363   1.525       .  S
C77          H78   1.110       .  S
C77          C83   1.586       .  S
C77          C82   1.587       .  S
C77          C81   1.588       .  S
C79          H80   1.113       .  S
C79          C85   1.507       .  S
C79          C84   1.508       .  S
C79          C86   1.510       .  S
C81          C84   1.370       .  D
C81         C373   1.516       .  S
C82          C85   1.370       .  D
C82         C360   1.527       .  S
C83          C86   1.376       .  D
C83         C353   1.516       .  S
C84         C553   1.473       .  S
C85         C540   1.461       .  S
C86         C530   1.479       .  S
Zn87         O91   1.887       .  S
Zn87         O92   1.941       .  S
Zn87         O96   1.959       .  S
Zn87        O103   1.945       .  S
Zn88         O91   1.933       .  S
Zn88         O93   1.993       .  S
Zn88         O95   2.039       .  S
Zn88         O99   1.999       .  S
Zn89         O91   1.932       .  S
Zn89         O94   2.040       .  S
Zn89         O97   1.991       .  S
Zn89        O100   1.989       .  S
Zn90         O91   1.935       .  S
Zn90         O98   1.995       .  S
Zn90        O101   2.005       .  S
Zn90        O102   2.021       .  S
O92         C104   1.264       .  A
O93         C105   1.273       .  A
O94         C106   1.276       .  A
O95         C104   1.277       .  A
O96         C106   1.265       .  A
O97         C105   1.272       .  A
O98         C107   1.271       .  A
O99         C108   1.271       .  A
O100        C107   1.271       .  A
O101        C108   1.273       .  A
O102        C109   1.276       .  A
O103        C109   1.265       .  A
C104        C333   1.461       .  S
C105        C300   1.469       .  S
C106        C343   1.465       .  S
C107        C310   1.467       .  S
C108        C290   1.480       .  S
C109        C323   1.458       .  S
Zn110       O114   1.843       .  S
Zn110       O119   1.951   1_545  S
Zn110      O1789   1.953   1_445  S
Zn110      O1242   1.968       .  S
Zn111      O1788   1.912       .  S
Zn111       O118   2.055       .  S
Zn111       O122   2.010       .  S
Zn111      O1232   2.017       .  S
Zn112       O114   1.903       .  S
Zn112       O117   2.058       .  S
Zn112       O123   2.012       .  S
Zn112       O678   1.997   1_545  S
Zn113      O1230   1.902       .  S
Zn113       O125   2.056       .  S
Zn113      O1237   2.003       .  S
Zn113       O682   2.001   1_545  S
O114      Zn1785   1.912   1_445  S
O114      Zn1229   1.902   1_455  S
O115      Zn1784   1.953       .  S
O115        C127   1.265       .  A
O116      Zn1227   2.017   1_455  S
O116        C128   1.277       .  A
O117        C129   1.279       .  A
O118        C127   1.278       .  A
O119        C129   1.264   1_565  A
O120       Zn670   1.997       .  S
O120        C128   1.275       .  A
O121      Zn1229   2.003   1_455  S
O121        C130   1.276       .  A
O122        C131   1.277       .  A
O123        C130   1.277       .  A
O124       Zn671   1.998       .  S
O124        C131   1.274       .  A
O125        C132   1.277       .  A
O126      Zn1226   1.968       .  S
O126        C132   1.265       .  A
C127        C303   1.468       .  S
C128        C423   1.476       .  S
C129        C313   1.468       .  S
C130        C430   1.474       .  S
C131        C413   1.476       .  S
C132        C293   1.466       .  S
C133        H134   1.110       .  S
C133        C139   1.585       .  S
C133        C138   1.590       .  S
C133        C137   1.589       .  S
C135        H136   1.113       .  S
C135        C141   1.515       .  S
C135        C140   1.514       .  S
C135        C142   1.515       .  S
C137        C140   1.374       .  D
C137        C280   1.521       .  S
C138        C141   1.371       .  D
C138        C260   1.525       .  S
C139        C142   1.371       .  D
C139        C270   1.521       .  S
C140        C490   1.479       .  S
C141        C483   1.476       .  S
C142        C470   1.470       .  S
C143        H144   1.114       .  S
C143        C148   1.514       .  S
C143       C1823   1.512       .  S
C143        C705   1.513       .  S
C145        H146   1.110   1_545  S
C145        C150   1.591       .  S
C145        C709   1.585   1_545  S
C145       C1268   1.590       .  S
C147        C701   1.513       .  S
C147        C150   1.371       .  D
C147        C243   1.473       .  S
C148        C151   1.370       .  D
C148        C230   1.469       .  S
C149       C1817   1.512   1_455  S
C149        C152   1.373       .  D
C149        C250   1.477       .  S
C150        C263   1.525       .  S
C151        C703   1.585       .  S
C151        C273   1.521       .  S
C152       C1261   1.590   1_455  S
C152        C283   1.520       .  S
Zn153       O157   1.946       .  S
Zn153       O158   2.037       .  S
Zn153       O162   1.999       .  S
Zn153       O169   1.996       .  S
Zn154       O157   1.890       .  S
Zn154       O159   1.956       .  S
Zn154       O161   1.931       .  S
Zn154       O165   1.939       .  S
Zn155       O157   1.937       .  S
Zn155       O160   1.995       .  S
Zn155       O163   2.042       .  S
Zn155       O166   1.992       .  S
Zn156       O157   1.944       .  S
Zn156       O164   1.994       .  S
Zn156       O167   2.045       .  S
Zn156       O168   2.004       .  S
O158        C170   1.276       .  A
O159        C171   1.264       .  A
O160        C172   1.273       .  A
O161        C170   1.264       .  A
O162        C172   1.271       .  A
O163        C171   1.276       .  A
O164        C173   1.273       .  A
O165        C174   1.263       .  A
O166        C173   1.272       .  A
O167        C174   1.277       .  A
O168        C175   1.272       .  A
O169        C175   1.272       .  A
C170        C403   1.458       .  S
C171        C393   1.467       .  S
C172        C220   1.476       .  S
C173        C210   1.470       .  S
C174        C383   1.460       .  S
C175        C200   1.477       .  S
Zn176       O180   1.848       .  S
Zn176       O181   1.960       .  S
Zn176       O185   1.960       .  S
Zn176       O192   1.954       .  S
Zn177       O180   1.912       .  S
Zn177       O182   2.017       .  S
Zn177       O184   2.061       .  S
Zn177       O188   2.006       .  S
Zn178       O180   1.904       .  S
Zn178       O183   2.053       .  S
Zn178       O186   1.985       .  S
Zn178       O189   1.997       .  S
Zn179       O180   1.914       .  S
Zn179       O187   2.020       .  S
Zn179       O190   2.012       .  S
Zn179       O191   2.061       .  S
O181        C193   1.265       .  A
O182        C194   1.276       .  A
O183        C195   1.276       .  A
O184        C193   1.279       .  A
O185        C195   1.265       .  A
O186        C194   1.274       .  A
O187        C196   1.277       .  A
O188        C197   1.276       .  A
O189        C196   1.274       .  A
O190        C197   1.276       .  A
O191        C198   1.279       .  A
O192        C198   1.264       .  A
C193        C223   1.465       .  S
C194        C233   1.473       .  S
C195        C203   1.466       .  S
C196        C253   1.474       .  S
C197        C240   1.477       .  S
C198        C213   1.469       .  S
C199        C200   1.408       .  A
C199        C204   1.396       .  A
C199        H206   1.083       .  S
C200        C201   1.407       .  A
C201        C202   1.397       .  A
C201        F208   1.357       .  S
C202        C203   1.404   1_556  A
C202        H207   1.083       .  S
C203        C204   1.402   1_554  A
C204        F205   1.358   1_556  S
C209        C210   1.407       .  A
C209        C214   1.396       .  A
C209        H216   1.083       .  S
C210        C769   1.404       .  A
C211        C212   1.395       .  A
C211        C768   1.403   1_545  A
C211        F218   1.358       .  S
C212        C213   1.406   1_556  A
C212        H217   1.083       .  S
C213        C772   1.404   1_544  A
C214        C771   1.403   1_556  A
C214        F215   1.358   1_556  S
C219        C224   1.394       .  A
C219       C1336   1.407       .  A
C219        H226   1.083       .  S
C220        C221   1.408   1_455  A
C220       C1335   1.407       .  A
C221        C222   1.398       .  A
C221        F228   1.358   1_655  S
C222       C1339   1.404   1_556  A
C222        H227   1.083       .  S
C223        C224   1.401   1_554  A
C223       C1338   1.404   1_554  A
C224        F225   1.358   1_556  S
C229        C230   1.401       .  A
C229        C234   1.399       .  A
C229        H236   1.084       .  S
C230        C231   1.399       .  A
C231        C232   1.388       .  A
C231        F238   1.356       .  S
C232        C233   1.403       .  A
C232        H237   1.083       .  S
C233        C234   1.411       .  A
C234        F235   1.358       .  S
C239        C240   1.404       .  A
C239        C244   1.392       .  A
C239        H246   1.083       .  S
C240        C241   1.412       .  A
C241        C242   1.398       .  A
C241        F248   1.357       .  S
C242        C243   1.399       .  A
C242        H247   1.083   1_545  S
C243        C244   1.402       .  A
C244       F1361   1.357       .  S
F245       C1360   1.357   1_455  S
C249        C250   1.403       .  A
C249        C254   1.393       .  A
C249        H256   1.083   1_545  S
C250        C251   1.402       .  A
C251        C252   1.398       .  A
C251        F258   1.357       .  S
C252        C253   1.409       .  A
C252        H257   1.083       .  S
C253        C254   1.404       .  A
C254        F255   1.357   1_545  S
C259        C260   1.408       .  A
C259        C264   1.418       .  A
C259        H266   1.083       .  S
C260        C261   1.417       .  A
C261        C262   1.418       .  A
C261        F268   1.357       .  S
C262        C263   1.408       .  A
C262        H825   1.083   1_545  S
C263        C264   1.417       .  A
C264        F265   1.357       .  S
H267        C820   1.083       .  S
C269        C270   1.415       .  A
C269        C274   1.416       .  A
C269        H276   1.083       .  S
C270        C271   1.408       .  A
C271        C272   1.416       .  A
C271        F278   1.357       .  S
C272        C273   1.415       .  A
C272        H277   1.083       .  S
C273        C274   1.407       .  A
C274       F1391   1.357       .  S
F275       C1390   1.357   1_455  S
C279        C280   1.417       .  A
C279        C284   1.415       .  A
C279        H286   1.083       .  S
C280        C281   1.406       .  A
C281        C282   1.414       .  A
C281        F288   1.357       .  S
C282        C283   1.417       .  A
C282        H287   1.083       .  S
C283        C284   1.406       .  A
C284        F285   1.357       .  S
C289        C290   1.407       .  A
C289        C294   1.398       .  A
C289        H296   1.083       .  S
C290        C291   1.411       .  A
C291        C292   1.395       .  A
C291        F298   1.358       .  S
C292        C293   1.400       .  A
C292        H297   1.084       .  S
C293        C294   1.404       .  A
C294       F1411   1.358       .  S
F295       C1410   1.358   1_455  S
C299        C300   1.406       .  A
C299        C304   1.394       .  A
C299        H306   1.083       .  S
C300        C301   1.403       .  A
C301        C302   1.396       .  A
C301        F308   1.358       .  S
C302        C303   1.407       .  A
C302        H307   1.083       .  S
C303        C304   1.403       .  A
C304        F305   1.358       .  S
C309        C310   1.400       .  A
C309        C314   1.396       .  A
C309        H316   1.083   1_545  S
C310        C311   1.409       .  A
C311        C312   1.394       .  A
C311        F318   1.358       .  S
C312        C313   1.400       .  A
C312        H317   1.083       .  S
C313        C314   1.410       .  A
C314        F315   1.358   1_545  S
C319        C320   1.400       .  A
C319        C882   1.393       .  A
C319        H326   1.083       .  S
C320        C321   1.406       .  A
C321        C322   1.387       .  A
C321        F328   1.356       .  S
C322        C881   1.396       .  A
C322        H327   1.084       .  S
C323        C324   1.408       .  A
C323        C880   1.396   1_545  A
C324        C877   1.393   1_545  A
C324        F325   1.358       .  S
C329        C330   1.405       .  A
C329        C334   1.391       .  A
C329        H336   1.083       .  S
C330        C331   1.399       .  A
C331        C332   1.393   1_455  A
C331        F338   1.357       .  S
C332       C1449   1.407       .  A
C332        H337   1.083       .  S
C333       C1448   1.407       .  A
C333       C1450   1.399       .  A
C334       C1449   1.399   1_455  A
C334       F1451   1.357       .  S
F335       C1450   1.357       .  S
C339        C340   1.403       .  A
C339        C344   1.394       .  A
C339        H346   1.084       .  S
C340        C341   1.403       .  A
C341        C342   1.395       .  A
C341        F348   1.357       .  S
C342        C343   1.405       .  A
C342        H347   1.083       .  S
C343        C344   1.402       .  A
C344        F345   1.357       .  S
C349        C350   1.405       .  A
C349        C912   1.413       .  A
C349        H356   1.083       .  S
C350        C351   1.417       .  A
C351        C910   1.414       .  A
C351        F358   1.357       .  S
C352        C353   1.405       .  A
C352        C909   1.413   1_545  A
C352        H357   1.083       .  S
C353        C354   1.416       .  A
C354        C907   1.413   1_545  A
C354        F355   1.357       .  S
C359        C360   1.418       .  A
C359       C1480   1.417       .  A
C359        H366   1.083       .  S
C360        C361   1.408       .  A
C361       C1478   1.417       .  A
C361        F368   1.357       .  S
C362        C363   1.417       .  A
C362       C1477   1.417   1_455  A
C362        H367   1.083       .  S
C363        C364   1.407       .  A
C364       C1475   1.417   1_455  A
C364        F365   1.357       .  S
C369        C370   1.413       .  A
C369        C374   1.414       .  A
C369        H376   1.083       .  S
C370        C371   1.408       .  A
C371        C372   1.415       .  A
C371        F378   1.357       .  S
C372        C373   1.414       .  A
C372        H377   1.083       .  S
C373        C374   1.408       .  A
C374        F375   1.357       .  S
C379        C380   1.404       .  A
C379        C384   1.393       .  A
C379        H944   1.083       .  S
C380        C381   1.399       .  A
C381        C382   1.393       .  A
C381        F388   1.357       .  S
C382        C383   1.406       .  A
C382        H387   1.083       .  S
C383        C384   1.400       .  A
C384        F385   1.357       .  S
H386        C937   1.083   1_545  S
C389        C390   1.401       .  A
C389        C394   1.396       .  A
C389        H954   1.083       .  S
C390        C391   1.408       .  A
C391        C392   1.393       .  A
C391       F1514   1.357   1_455  S
C392        C393   1.398       .  A
C392        H397   1.083       .  S
C393        C394   1.409       .  A
C394        F395   1.358       .  S
H396        C947   1.083       .  S
F398       C1507   1.357       .  S
C399        C400   1.406       .  A
C399        C404   1.393       .  A
C399        H406   1.083       .  S
C400        C401   1.399       .  A
C401        C402   1.390       .  A
C401       F1524   1.357       .  S
C402        C403   1.406       .  A
C402        H407   1.083       .  S
C403        C404   1.400       .  A
C404        F405   1.358       .  S
F408       C1517   1.357       .  S
C409        C410   1.397       .  A
C409        C414   1.396       .  A
C409        H416   1.084       .  S
C410        C411   1.401       .  A
C411        C412   1.393       .  A
C411        F418   1.356       .  S
C412        C413   1.404       .  A
C412        H417   1.083       .  S
C413        C414   1.413       .  A
C414        F415   1.357       .  S
C419        C420   1.399       .  A
C419        C424   1.393       .  A
C419        H426   1.083       .  S
C420        C421   1.401       .  A
C421        C422   1.398       .  A
C421        F428   1.357       .  S
C422        C423   1.408       .  A
C422        H427   1.083       .  S
C423        C424   1.408       .  A
C424        F983   1.358       .  S
F425        C982   1.358       .  S
C429        C430   1.408       .  A
C429        C434   1.397       .  A
C429        H436   1.083       .  S
C430        C431   1.405       .  A
C431        C432   1.393       .  A
C431        F438   1.358       .  S
C432        C433   1.402       .  A
C432        H437   1.082       .  S
C433        C434   1.401       .  A
C434        F435   1.357       .  S
C439        C440   1.406       .  A
C439        C444   1.417       .  A
C439        H446   1.083       .  S
C440        C441   1.421       .  A
C441        C442   1.417       .  A
C441        F448   1.357       .  S
C442        C443   1.406       .  A
C442        H447   1.083       .  S
C443        C444   1.420       .  A
C444        F445   1.357   1_455  S
C449        C450   1.417       .  A
C449        C454   1.416       .  A
C449        H456   1.083       .  S
C450        C451   1.408       .  A
C451        C452   1.418       .  A
C451        F458   1.357       .  S
C452        C453   1.418       .  A
C452        H457   1.083       .  S
C453        C454   1.406       .  A
C454        F455   1.357       .  S
C459        C460   1.418       .  A
C459        C464   1.416       .  A
C459        H466   1.083       .  S
C460        C461   1.407       .  A
C461        C462   1.415       .  A
C461       F1584   1.357   1_455  S
C462        C463   1.417       .  A
C462        H467   1.083       .  S
C463        C464   1.407       .  A
C464        F465   1.357       .  S
F468       C1577   1.357       .  S
C469        C470   1.400       .  A
C469        C474   1.398       .  A
C469        H476   1.083       .  S
C470        C471   1.400       .  A
C471        C472   1.391       .  A
C471        F478   1.356       .  S
C472        C473   1.405       .  A
C472        H477   1.083       .  S
C473        C474   1.412       .  A
C474        F475   1.358       .  S
C479        C480   1.405       .  A
C479        C484   1.395       .  A
C479        H486   1.083       .  S
C480        C481   1.411       .  A
C481        C482   1.399       .  A
C481        F488   1.357       .  S
C482        C483   1.400       .  A
C482        H487   1.083       .  S
C483        C484   1.402       .  A
C484        F485   1.357       .  S
C489        C490   1.404       .  A
C489        C494   1.395       .  A
C489        H496   1.082       .  S
C490        C491   1.401       .  A
C491        C492   1.398       .  A
C491        F498   1.357       .  S
C492        C493   1.409       .  A
C492        H497   1.083   1_545  S
C493        C494   1.404       .  A
C494        F495   1.357       .  S
C499        C500   1.403       .  A
C499        C504   1.396       .  A
C499        H506   1.083       .  S
C500        C501   1.411       .  A
C501        C502   1.400       .  A
C501        F508   1.358       .  S
C502        C503   1.403       .  A
C502        H507   1.083       .  S
C503        C504   1.409       .  A
C504        F505   1.358   1_455  S
C509        C510   1.411       .  A
C509        C514   1.398       .  A
C509        H516   1.083       .  S
C510        C511   1.404       .  A
C511        C512   1.397       .  A
C511        F518   1.357       .  S
C512        C513   1.407       .  A
C512        H517   1.083       .  S
C513        C514   1.402       .  A
C514        F515   1.358       .  S
C519        C520   1.406       .  A
C519        C524   1.396       .  A
C519        H526   1.084       .  S
C520        C521   1.400       .  A
C521        C522   1.395       .  A
C521        F528   1.358       .  S
C522        C523   1.411       .  A
C522        H527   1.083       .  S
C523        C524   1.404       .  A
C524        F525   1.357       .  S
C529        C530   1.399       .  A
C529        C534   1.395   1_545  A
C529        H536   1.083       .  S
C530        C531   1.409       .  A
C531       C1090   1.395       .  A
C531        F538   1.356       .  S
C532        C533   1.398       .  A
C532       C1089   1.395       .  A
C532        H537   1.084       .  S
C533       C1092   1.410       .  A
C534       C1091   1.410       .  A
C534        F535   1.358       .  S
C539        C540   1.404       .  A
C539        C544   1.391       .  A
C539        H546   1.084       .  S
C540        C541   1.397       .  A
C541        C542   1.389       .  A
C541        F548   1.357       .  S
C542       C1659   1.405       .  A
C542       H1663   1.084       .  S
C543       C1658   1.405       .  A
C543       C1660   1.399   1_455  A
C544       C1659   1.399       .  A
C544       F1661   1.357       .  S
F545       C1660   1.357       .  S
H547       C1658   1.084       .  S
C549        C550   1.398       .  A
C549        C554   1.394       .  A
C549        H556   1.083       .  S
C550        C551   1.408       .  A
C551        C552   1.393       .  A
C551        F558   1.358       .  S
C552        C553   1.399       .  A
C552        H557   1.083       .  S
C553        C554   1.406       .  A
C554        F555   1.356       .  S
Zn559       O563   1.954       .  S
Zn559       O564   1.998       .  S
Zn559       O568   2.055       .  S
Zn559       O575   2.015       .  S
Zn560       O563   1.943       .  S
Zn560       O565   2.050       .  S
Zn560       O567   1.989       .  S
Zn560       O571   2.013       .  S
Zn561       O563   1.893       .  S
Zn561       O566   1.946       .  S
Zn561       O569   1.941       .  S
Zn561       O572   1.923       .  S
Zn562       O563   1.945       .  S
Zn562       O570   2.036       .  S
Zn562       O573   1.997       .  S
Zn562       O574   1.996       .  S
O564        C576   1.272       .  A
O565        C577   1.277       .  A
O566        C578   1.263       .  A
O567        C576   1.272       .  A
O568        C578   1.278       .  A
O569        C577   1.263       .  A
O570        C579   1.276       .  A
O571        C580   1.273       .  A
O572        C579   1.262       .  A
O573        C580   1.272       .  A
O574        C581   1.272       .  A
O575        C581   1.274       .  A
C576       C1078   1.466       .  S
C577       C1108   1.463       .  S
C578       C1091   1.468       .  S
C579       C1101   1.452       .  S
C580       C1071   1.475       .  S
C581       C1058   1.478       .  S
Zn582       O586   1.914       .  S
Zn582       O591   2.068       .  S
Zn582       O598   2.017       .  S
Zn583      O1144   1.916   1_455  S
Zn583       O588   2.075       .  S
Zn583      O1706   2.028   1_455  S
Zn583       O594   2.025       .  S
Zn584       O586   1.844       .  S
Zn584       O589   1.947       .  S
Zn584      O1150   1.953   1_565  S
Zn584      O1711   1.958       .  S
Zn585      O1702   1.907   1_455  S
Zn585       O593   2.070       .  S
Zn585      O1713   1.999   1_455  S
O586      Zn1141   1.915   1_565  S
O586      Zn1701   1.907       .  S
O587        C599   1.276       .  A
O588        C600   1.281       .  A
O589        C601   1.265       .  A
O590      Zn1699   2.028       .  S
O590        C599   1.278       .  A
O591        C601   1.280       .  A
O592      Zn1142   1.953   1_455  S
O592        C600   1.265       .  A
O593        C602   1.278       .  A
O594        C603   1.278       .  A
O595      Zn1700   1.958       .  S
O595        C602   1.264   1_655  A
O596        C603   1.275       .  A
O597      Zn1701   1.999       .  S
O597        C604   1.276       .  A
O598        C604   1.277       .  A
C599       C1038   1.480       .  S
C600       C1068   1.478       .  S
C601       C1081   1.474       .  S
C602       C1061   1.475       .  S
C603       C1051   1.476       .  S
C604       C1031   1.477       .  S
C605        H606   1.110       .  S
C605        C611   1.589       .  S
C605        C610   1.590       .  S
C605        C609   1.592       .  S
C607        H608   1.114       .  S
C607        C613   1.510       .  S
C607        C612   1.511       .  S
C607        C614   1.513       .  S
C609        C612   1.373       .  D
C609        C998   1.528       .  S
C610        C613   1.370       .  D
C610       C1008   1.525       .  S
C611        C614   1.375       .  D
C611       C1021   1.523       .  S
C612        C978   1.471       .  S
C613        C968   1.470       .  S
C614        C991   1.475       .  S
C615        H616   1.110       .  S
C615       C1737   1.595   1_545  S
C615        C620   1.589   1_545  S
C615       C1177   1.588       .  S
C617        H618   1.113       .  S
C617        C623   1.507       .  S
C617       C1180   1.507   1_565  S
C617       C1740   1.509       .  S
C619       C1173   1.588       .  S
C619        C622   1.374       .  D
C619       C1018   1.525       .  S
C620        C623   1.370       .  D
C620       C1011   1.524       .  S
C621       C1731   1.595   1_565  S
C621        C624   1.376       .  D
C621       C1001   1.526       .  S
C622       C1175   1.507   1_455  S
C622        C958   1.467       .  S
C623        C938   1.467       .  S
C624       C1733   1.509   1_455  S
C624        C948   1.480       .  S
C625        H626   1.113       .  S
C625        C631   1.508       .  S
C625        C630   1.505       .  S
C625        C629   1.509       .  S
C627        H628   1.110       .  S
C627        C633   1.589       .  S
C627        C632   1.584       .  S
C627        C634   1.589       .  S
C629        C632   1.373       .  D
C629        C878   1.472       .  S
C630        C633   1.370       .  D
C630        C898   1.473       .  S
C631        C634   1.373       .  D
C631        C888   1.469       .  S
C632        C908   1.516       .  S
C633        C928   1.516       .  S
C634        C921   1.525       .  S
C635        H636   1.110       .  S
C635        C641   1.587       .  S
C635        C640   1.587       .  S
C635        C639   1.588       .  S
C637        H638   1.113       .  S
C637        C643   1.507       .  S
C637        C642   1.507       .  S
C637        C644   1.510       .  S
C639        C642   1.370       .  D
C639        C931   1.516       .  S
C640        C643   1.370       .  D
C640        C918   1.527       .  S
C641        C644   1.376       .  D
C641        C911   1.516       .  S
C642       C1111   1.473       .  S
C643       C1098   1.460       .  S
C644       C1088   1.480       .  S
Zn645       O649   1.886       .  S
Zn645       O650   1.941       .  S
Zn645       O654   1.959       .  S
Zn645       O661   1.945       .  S
Zn646       O649   1.932       .  S
Zn646       O651   1.993       .  S
Zn646       O653   2.038       .  S
Zn646       O657   1.997       .  S
Zn647       O649   1.932       .  S
Zn647       O652   2.039       .  S
Zn647       O655   1.991       .  S
Zn647       O658   1.988       .  S
Zn648       O649   1.936       .  S
Zn648       O656   1.995       .  S
Zn648       O659   2.006       .  S
Zn648       O660   2.022       .  S
O650        C662   1.264       .  A
O651        C663   1.273       .  A
O652        C664   1.276       .  A
O653        C662   1.277       .  A
O654        C664   1.265       .  A
O655        C663   1.272       .  A
O656        C665   1.271       .  A
O657        C666   1.271       .  A
O658        C665   1.271       .  A
O659        C666   1.273       .  A
O660        C667   1.276       .  A
O661        C667   1.265       .  A
C662        C891   1.461       .  S
C663        C858   1.469       .  S
C664        C901   1.465       .  S
C665        C868   1.468       .  S
C666        C848   1.480       .  S
C667        C881   1.458       .  S
Zn668       O672   1.843       .  S
Zn668      O1231   1.953   1_455  S
Zn668       O677   1.951       .  S
Zn668      O1800   1.968       .  S
Zn669      O1230   1.912   1_565  S
Zn669      O1790   2.017       .  S
Zn669       O676   2.056       .  S
Zn669       O680   2.011       .  S
Zn670       O672   1.903       .  S
Zn670       O675   2.057       .  S
Zn670       O681   2.012       .  S
Zn671      O1788   1.902       .  S
Zn671      O1795   2.002       .  S
Zn671       O683   2.054       .  S
O672      Zn1227   1.912   1_455  S
O672      Zn1787   1.902   1_455  S
O673      Zn1226   1.953   1_565  S
O673        C685   1.265       .  A
O674      Zn1785   2.017   1_455  S
O674        C686   1.277       .  A
O675        C687   1.279       .  A
O676        C685   1.279       .  A
O677        C687   1.264       .  A
O678        C686   1.275       .  A
O679      Zn1787   2.002   1_455  S
O679        C688   1.276       .  A
O680        C689   1.277       .  A
O681        C688   1.276       .  A
O682        C689   1.275       .  A
O683        C690   1.277       .  A
O684      Zn1784   1.968       .  S
O684        C690   1.265       .  A
C685        C861   1.468       .  S
C686        C981   1.476       .  S
C687        C871   1.468       .  S
C688        C988   1.473       .  S
C689        C971   1.477       .  S
C690        C851   1.465       .  S
C691        H692   1.110       .  S
C691        C697   1.585       .  S
C691        C696   1.591       .  S
C691        C695   1.589       .  S
C693        H694   1.113       .  S
C693        C699   1.515       .  S
C693        C698   1.514       .  S
C693        C700   1.515       .  S
C695        C698   1.374       .  D
C695        C838   1.521       .  S
C696        C699   1.372       .  D
C696        C818   1.525       .  S
C697        C700   1.371       .  D
C697        C828   1.521       .  S
C698       C1048   1.479       .  S
C699       C1041   1.476       .  S
C700       C1028   1.470       .  S
C701        H702   1.114       .  S
C701       C1265   1.512       .  S
C701        C706   1.513   1_545  S
C703        H704   1.110       .  S
C703        C708   1.591       .  S
C703       C1826   1.590       .  S
C705        C708   1.371       .  D
C705        C801   1.473       .  S
C706        C709   1.370       .  D
C706        C788   1.469       .  S
C707       C1259   1.512   1_455  S
C707        C710   1.373       .  D
C707        C808   1.478       .  S
C708        C821   1.525       .  S
C709        C831   1.521       .  S
C710       C1819   1.590   1_455  S
C710        C841   1.520       .  S
Zn711       O715   1.947       .  S
Zn711       O716   2.037       .  S
Zn711       O720   1.998       .  S
Zn711       O727   1.996       .  S
Zn712       O715   1.890       .  S
Zn712       O717   1.956       .  S
Zn712       O719   1.931       .  S
Zn712       O723   1.939       .  S
Zn713       O715   1.938       .  S
Zn713       O718   1.996       .  S
Zn713       O721   2.042       .  S
Zn713       O724   1.993       .  S
Zn714       O715   1.945       .  S
Zn714       O722   1.994       .  S
Zn714       O725   2.044       .  S
Zn714       O726   2.004       .  S
O716        C728   1.276       .  A
O717        C729   1.264       .  A
O718        C730   1.273       .  A
O719        C728   1.264       .  A
O720        C730   1.271       .  A
O721        C729   1.276       .  A
O722        C731   1.273       .  A
O723        C732   1.263       .  A
O724        C731   1.272       .  A
O725        C732   1.277       .  A
O726        C733   1.272       .  A
O727        C733   1.272       .  A
C728        C961   1.458       .  S
C729        C951   1.467       .  S
C730        C778   1.477       .  S
C731        C768   1.470       .  S
C732        C941   1.460       .  S
C733        C758   1.477       .  S
Zn734       O738   1.848       .  S
Zn734       O739   1.961       .  S
Zn734       O743   1.960       .  S
Zn734       O750   1.954       .  S
Zn735       O738   1.912       .  S
Zn735       O740   2.016       .  S
Zn735       O742   2.061       .  S
Zn735       O746   2.006       .  S
Zn736       O738   1.904       .  S
Zn736       O741   2.053       .  S
Zn736       O744   1.986       .  S
Zn736       O747   1.998       .  S
Zn737       O738   1.914       .  S
Zn737       O745   2.020       .  S
Zn737       O748   2.012       .  S
Zn737       O749   2.060       .  S
O739        C751   1.265       .  A
O740        C752   1.276       .  A
O741        C753   1.277       .  A
O742        C751   1.279       .  A
O743        C753   1.265       .  A
O744        C752   1.274       .  A
O745        C754   1.277       .  A
O746        C755   1.276       .  A
O747        C754   1.274       .  A
O748        C755   1.276       .  A
O749        C756   1.278       .  A
O750        C756   1.264       .  A
C751        C781   1.464       .  S
C752        C791   1.473       .  S
C753        C761   1.466       .  S
C754        C811   1.474       .  S
C755        C798   1.477       .  S
C756        C771   1.469       .  S
C757        C758   1.408       .  A
C757        C762   1.396       .  A
C757        H764   1.083       .  S
C758        C759   1.406       .  A
C759        C760   1.397       .  A
C759        F766   1.357       .  S
C760        C761   1.404   1_556  A
C760        H765   1.083       .  S
C761        C762   1.402   1_554  A
C762        F763   1.358   1_556  S
C767        C768   1.407       .  A
C767        C772   1.396       .  A
C767        H774   1.083       .  S
C769        C770   1.395       .  A
C769        F776   1.358       .  S
C770        C771   1.406   1_556  A
C770        H775   1.083       .  S
C772        F773   1.358   1_556  S
C777       C1894   1.407       .  A
C777        C782   1.394       .  A
C777        H784   1.083       .  S
C778       C1893   1.407       .  A
C778        C779   1.408   1_455  A
C779        C780   1.398       .  A
C779        F786   1.358   1_655  S
C780       C1897   1.403   1_556  A
C780        H785   1.083       .  S
C781       C1896   1.403   1_554  A
C781        C782   1.401   1_554  A
C782        F783   1.358   1_556  S
C787        C788   1.401       .  A
C787        C792   1.399       .  A
C787        H794   1.084       .  S
C788        C789   1.399       .  A
C789        C790   1.388       .  A
C789        F796   1.356       .  S
C790        C791   1.403       .  A
C790        H795   1.083       .  S
C791        C792   1.411       .  A
C792        F793   1.358       .  S
C797        C798   1.404       .  A
C797        C802   1.392       .  A
C797        H804   1.083       .  S
C798        C799   1.412       .  A
C799        C800   1.398       .  A
C799        F806   1.357       .  S
C800        C801   1.399       .  A
C800        H805   1.083       .  S
C801        C802   1.402       .  A
C802       F1919   1.357       .  S
F803       C1918   1.357   1_455  S
C807        C808   1.403       .  A
C807        C812   1.393       .  A
C807        H814   1.082       .  S
C808        C809   1.402       .  A
C809        C810   1.398       .  A
C809        F816   1.357       .  S
C810        C811   1.409       .  A
C810        H815   1.083       .  S
C811        C812   1.404       .  A
C812        F813   1.357       .  S
C817        C818   1.408       .  A
C817        C822   1.418       .  A
C817        H824   1.083       .  S
C818        C819   1.418       .  A
C819        C820   1.418       .  A
C819        F826   1.357       .  S
C820        C821   1.408       .  A
C821        C822   1.417       .  A
C822        F823   1.357       .  S
C827        C828   1.415       .  A
C827        C832   1.416       .  A
C827        H834   1.083       .  S
C828        C829   1.408       .  A
C829        C830   1.416       .  A
C829        F836   1.357       .  S
C830        C831   1.416       .  A
C830        H835   1.083       .  S
C831        C832   1.407       .  A
C832       F1949   1.357       .  S
F833       C1948   1.357   1_455  S
C837        C838   1.417       .  A
C837        C842   1.415       .  A
C837        H844   1.083       .  S
C838        C839   1.406       .  A
C839        C840   1.414       .  A
C839        F846   1.357       .  S
C840        C841   1.417       .  A
C840        H845   1.083       .  S
C841        C842   1.406       .  A
C842        F843   1.357       .  S
C847        C848   1.408       .  A
C847        C852   1.398       .  A
C847        H854   1.083       .  S
C848        C849   1.411       .  A
C849        C850   1.395       .  A
C849        F856   1.357       .  S
C850        C851   1.400       .  A
C850        H855   1.084       .  S
C851        C852   1.404       .  A
C852       F1969   1.358       .  S
F853       C1968   1.358   1_455  S
C857        C858   1.406       .  A
C857        C862   1.394       .  A
C857        H864   1.083       .  S
C858        C859   1.403       .  A
C859        C860   1.396       .  A
C859        F866   1.358       .  S
C860        C861   1.407       .  A
C860        H865   1.083       .  S
C861        C862   1.403       .  A
C862        F863   1.358       .  S
C867        C868   1.401       .  A
C867        C872   1.396       .  A
C867        H874   1.083       .  S
C868        C869   1.409       .  A
C869        C870   1.393       .  A
C869        F876   1.358       .  S
C870        C871   1.399       .  A
C870        H875   1.083       .  S
C871        C872   1.410       .  A
C872        F873   1.358       .  S
C877        C878   1.400       .  A
C877        H884   1.083       .  S
C878        C879   1.406       .  A
C879        C880   1.388       .  A
C879        F886   1.356       .  S
C880        H885   1.084       .  S
C881        C882   1.408       .  A
C882        F883   1.358       .  S
C887        C888   1.405       .  A
C887        C892   1.391       .  A
C887        H894   1.083       .  S
C888        C889   1.399       .  A
C889        C890   1.393   1_455  A
C889        F896   1.357       .  S
C890       C2007   1.407       .  A
C890        H895   1.083       .  S
C891       C2006   1.407       .  A
C891       C2008   1.399       .  A
C892       C2007   1.399   1_455  A
C892       F2009   1.357       .  S
F893       C2008   1.357       .  S
C897        C898   1.403       .  A
C897        C902   1.394       .  A
C897        H904   1.084       .  S
C898        C899   1.403       .  A
C899        C900   1.395       .  A
C899        F906   1.357       .  S
C900        C901   1.406       .  A
C900        H905   1.083       .  S
C901        C902   1.402       .  A
C902        F903   1.357       .  S
C907        C908   1.405       .  A
C907        H914   1.083       .  S
C908        C909   1.417       .  A
C909        F916   1.357       .  S
C910        C911   1.405       .  A
C910        H915   1.083       .  S
C911        C912   1.416       .  A
C912        F913   1.357       .  S
C917        C918   1.418       .  A
C917       C2038   1.417       .  A
C917        H924   1.083       .  S
C918        C919   1.408       .  A
C919       C2036   1.417       .  A
C919        F926   1.357       .  S
C920       C2035   1.417   1_455  A
C920        C921   1.417       .  A
C920        H925   1.083       .  S
C921        C922   1.407       .  A
C922       C2033   1.417   1_455  A
C922        F923   1.357       .  S
C927        C928   1.414       .  A
C927        C932   1.414       .  A
C927        H934   1.083       .  S
C928        C929   1.408       .  A
C929        C930   1.415       .  A
C929        F936   1.357       .  S
C930        C931   1.414       .  A
C930        H935   1.083       .  S
C931        C932   1.408       .  A
C932        F933   1.357       .  S
C937        C938   1.404       .  A
C937        C942   1.393       .  A
C938        C939   1.399       .  A
C939        C940   1.393       .  A
C939        F946   1.357       .  S
C940        C941   1.406       .  A
C940        H945   1.083       .  S
C941        C942   1.400       .  A
C942        F943   1.357   1_565  S
C947        C948   1.401       .  A
C947        C952   1.396       .  A
C948        C949   1.408       .  A
C949        C950   1.393       .  A
C949       F2072   1.357   1_455  S
C950        C951   1.398       .  A
C950        H955   1.083       .  S
C951        C952   1.409       .  A
C952        F953   1.358       .  S
F956       C2065   1.357       .  S
C957        C958   1.406       .  A
C957        C962   1.393       .  A
C957        H964   1.083       .  S
C958        C959   1.399       .  A
C959        C960   1.390       .  A
C959       F2082   1.357       .  S
C960        C961   1.406       .  A
C960        H965   1.083       .  S
C961        C962   1.400       .  A
C962        F963   1.358       .  S
F966       C2075   1.357       .  S
C967        C968   1.397       .  A
C967        C972   1.396       .  A
C967        H974   1.084       .  S
C968        C969   1.401       .  A
C969        C970   1.393       .  A
C969        F976   1.356       .  S
C970        C971   1.404       .  A
C970        H975   1.083       .  S
C971        C972   1.413       .  A
C972        F973   1.357   1_565  S
C977        C978   1.399       .  A
C977        C982   1.392       .  A
C977        H984   1.083       .  S
C978        C979   1.401       .  A
C979        C980   1.398       .  A
C979        F986   1.357       .  S
C980        C981   1.408       .  A
C980        H985   1.083       .  S
C981        C982   1.408       .  A
C987        C988   1.408       .  A
C987        C992   1.397       .  A
C987        H994   1.083       .  S
C988        C989   1.405       .  A
C989        C990   1.393       .  A
C989        F996   1.358       .  S
C990        C991   1.402       .  A
C990        H995   1.082       .  S
C991        C992   1.401       .  A
C992        F993   1.357       .  S
C997        C998   1.406       .  A
C997       C1002   1.417       .  A
C997       H1004   1.083       .  S
C998        C999   1.421       .  A
C999       C1000   1.417       .  A
C999       F1006   1.357       .  S
C1000      C1001   1.406       .  A
C1000      H1005   1.083   1_565  S
C1001      C1002   1.420       .  A
C1002      F1003   1.357   1_455  S
C1007      C1008   1.417       .  A
C1007      C1012   1.416       .  A
C1007      H1014   1.083       .  S
C1008      C1009   1.408       .  A
C1009      C1010   1.418       .  A
C1009      F1016   1.357       .  S
C1010      C1011   1.418       .  A
C1010      H1015   1.083   1_565  S
C1011      C1012   1.406       .  A
C1012      F1013   1.357       .  S
C1017      C1018   1.418       .  A
C1017      C1022   1.416       .  A
C1017      H1024   1.083       .  S
C1018      C1019   1.407       .  A
C1019      C1020   1.415       .  A
C1019      F2142   1.357   1_455  S
C1020      C1021   1.417       .  A
C1020      H1025   1.083       .  S
C1021      C1022   1.407       .  A
C1022      F1023   1.357       .  S
F1026      C2135   1.357       .  S
C1027      C1028   1.400       .  A
C1027      C1032   1.398       .  A
C1027      H1034   1.083       .  S
C1028      C1029   1.400       .  A
C1029      C1030   1.391       .  A
C1029      F1036   1.356       .  S
C1030      C1031   1.405       .  A
C1030      H1035   1.083       .  S
C1031      C1032   1.412       .  A
C1032      F1033   1.358       .  S
C1037      C1038   1.405       .  A
C1037      C1042   1.395       .  A
C1037      H1044   1.083       .  S
C1038      C1039   1.411       .  A
C1039      C1040   1.399       .  A
C1039      F1046   1.357       .  S
C1040      C1041   1.400       .  A
C1040      H1045   1.083       .  S
C1041      C1042   1.402       .  A
C1042      F1043   1.357       .  S
C1047      C1048   1.403       .  A
C1047      C1052   1.395       .  A
C1047      H1054   1.082       .  S
C1048      C1049   1.401       .  A
C1049      C1050   1.398       .  A
C1049      F1056   1.357       .  S
C1050      C1051   1.409       .  A
C1050      H1055   1.083       .  S
C1051      C1052   1.404       .  A
C1052      F1053   1.357       .  S
C1057      C1058   1.403       .  A
C1057      C1062   1.396       .  A
C1057      H1064   1.083       .  S
C1058      C1059   1.411       .  A
C1059      C1060   1.400       .  A
C1059      F1066   1.358       .  S
C1060      C1061   1.403       .  A
C1060      H1065   1.083       .  S
C1061      C1062   1.408       .  A
C1062      F1063   1.358   1_455  S
C1067      C1068   1.411       .  A
C1067      C1072   1.398       .  A
C1067      H1074   1.083       .  S
C1068      C1069   1.404       .  A
C1069      C1070   1.397       .  A
C1069      F1076   1.357       .  S
C1070      C1071   1.407       .  A
C1070      H1075   1.083       .  S
C1071      C1072   1.402       .  A
C1072      F1073   1.358       .  S
C1077      C1078   1.406       .  A
C1077      C1082   1.395       .  A
C1077      H1084   1.084       .  S
C1078      C1079   1.400       .  A
C1079      C1080   1.395       .  A
C1079      F1086   1.358   1_565  S
C1080      C1081   1.410       .  A
C1080      H1085   1.083   1_565  S
C1081      C1082   1.403       .  A
C1082      F1083   1.357       .  S
C1087      C1088   1.399       .  A
C1087      C1092   1.395       .  A
C1087      H1094   1.083       .  S
C1088      C1089   1.409       .  A
C1089      F1096   1.356       .  S
C1090      C1091   1.398   1_545  A
C1090      H1095   1.084       .  S
C1092      F1093   1.358       .  S
C1097      C1098   1.403       .  A
C1097      C1102   1.391       .  A
C1097      H1104   1.084       .  S
C1098      C1099   1.397       .  A
C1099      C1100   1.389       .  A
C1099      F1106   1.358       .  S
C1100      C2217   1.405       .  A
C1100      H2221   1.084       .  S
C1101      C2216   1.405       .  A
C1101      C2218   1.399   1_455  A
C1102      C2217   1.399       .  A
C1102      F2219   1.357       .  S
F1103      C2218   1.357       .  S
H1105      C2216   1.084       .  S
C1107      C1108   1.398       .  A
C1107      C1112   1.394       .  A
C1107      H1114   1.083       .  S
C1108      C1109   1.408       .  A
C1109      C1110   1.393       .  A
C1109      F1116   1.358       .  S
C1110      C1111   1.399       .  A
C1110      H1115   1.083       .  S
C1111      C1112   1.406       .  A
C1112      F1113   1.356       .  S
Zn1117     O1121   1.954       .  S
Zn1117     O1122   1.997       .  S
Zn1117     O1126   2.055       .  S
Zn1117     O1133   2.015       .  S
Zn1118     O1121   1.944       .  S
Zn1118     O1123   2.051       .  S
Zn1118     O1125   1.990       .  S
Zn1118     O1129   2.013       .  S
Zn1119     O1121   1.894       .  S
Zn1119     O1124   1.947       .  S
Zn1119     O1127   1.941       .  S
Zn1119     O1130   1.923       .  S
Zn1120     O1121   1.945       .  S
Zn1120     O1128   2.037       .  S
Zn1120     O1131   1.997       .  S
Zn1120     O1132   1.997       .  S
O1122      C1134   1.272       .  A
O1123      C1135   1.277       .  A
O1124      C1136   1.263       .  A
O1125      C1134   1.272       .  A
O1126      C1136   1.278       .  A
O1127      C1135   1.263       .  A
O1128      C1137   1.276       .  A
O1129      C1138   1.273       .  A
O1130      C1137   1.262       .  A
O1131      C1138   1.272       .  A
O1132      C1139   1.272       .  A
O1133      C1139   1.274       .  A
C1134      C1636   1.466       .  S
C1135      C1666   1.463       .  S
C1136      C1649   1.468       .  S
C1137      C1659   1.452       .  S
C1138      C1629   1.475       .  S
C1139      C1616   1.478       .  S
Zn1140     O1144   1.914       .  S
Zn1140     O1703   2.006       .  S
Zn1140     O1149   2.068       .  S
Zn1140     O1156   2.017       .  S
Zn1141     O1146   2.075       .  S
Zn1141     O1152   2.026       .  S
Zn1142     O1144   1.843       .  S
Zn1142     O1147   1.947       .  S
Zn1143     O1151   2.071       .  S
Zn1143     O1712   2.001       .  S
O1145     Zn1698   2.007   1_545  S
O1145      C1157   1.276       .  A
O1146      C1158   1.281       .  A
O1147      C1159   1.265       .  A
O1148      C1157   1.278       .  A
O1149      C1159   1.280       .  A
O1150      C1158   1.265       .  A
O1151      C1160   1.278       .  A
O1152      C1161   1.278       .  A
O1153      C1160   1.264       .  A
O1154     Zn1701   2.001   1_545  S
O1154      C1161   1.275       .  A
O1155      C1162   1.276       .  A
O1156      C1162   1.277       .  A
C1157      C1596   1.480       .  S
C1158      C1626   1.478       .  S
C1159      C1639   1.474       .  S
C1160      C1619   1.475       .  S
C1161      C1609   1.476       .  S
C1162      C1589   1.477       .  S
C1163      H1164   1.110       .  S
C1163      C1169   1.589       .  S
C1163      C1168   1.589       .  S
C1163      C1167   1.592       .  S
C1165      H1166   1.114       .  S
C1165      C1171   1.510       .  S
C1165      C1170   1.510       .  S
C1165      C1172   1.513       .  S
C1167      C1170   1.373       .  D
C1167      C1556   1.527       .  S
C1168      C1171   1.370       .  D
C1168      C1566   1.525       .  S
C1169      C1172   1.375       .  D
C1169      C1579   1.523       .  S
C1170      C1536   1.471       .  S
C1171      C1526   1.469       .  S
C1172      C1549   1.475       .  S
C1173      H1174   1.110       .  S
C1173      C1178   1.589   1_455  S
C1175      H1176   1.113       .  S
C1175      C1181   1.507       .  S
C1177      C1180   1.374       .  D
C1177      C1576   1.525       .  S
C1178      C1181   1.370       .  D
C1178      C1569   1.524       .  S
C1179      C1182   1.376       .  D
C1179      C1559   1.526       .  S
C1180      C1516   1.468       .  S
C1181      C1496   1.467       .  S
C1182      C1506   1.480       .  S
C1183      H1184   1.113       .  S
C1183      C1189   1.508       .  S
C1183      C1188   1.505       .  S
C1183      C1187   1.509       .  S
C1185      H1186   1.110       .  S
C1185      C1191   1.589       .  S
C1185      C1190   1.584       .  S
C1185      C1192   1.589       .  S
C1187      C1190   1.373       .  D
C1187      C1436   1.472       .  S
C1188      C1191   1.370       .  D
C1188      C1456   1.473       .  S
C1189      C1192   1.373       .  D
C1189      C1446   1.469       .  S
C1190      C1466   1.517       .  S
C1191      C1486   1.515       .  S
C1192      C1479   1.525       .  S
C1193      H1194   1.110       .  S
C1193      C1199   1.586       .  S
C1193      C1198   1.587       .  S
C1193      C1197   1.588       .  S
C1195      H1196   1.113       .  S
C1195      C1201   1.507       .  S
C1195      C1200   1.508       .  S
C1195      C1202   1.510       .  S
C1197      C1200   1.370       .  D
C1197      C1489   1.516       .  S
C1198      C1201   1.370       .  D
C1198      C1476   1.527       .  S
C1199      C1202   1.376       .  D
C1199      C1469   1.516       .  S
C1200      C1669   1.473       .  S
C1201      C1656   1.461       .  S
C1202      C1646   1.479       .  S
Zn1203     O1207   1.887       .  S
Zn1203     O1208   1.941       .  S
Zn1203     O1212   1.959       .  S
Zn1203     O1219   1.945       .  S
Zn1204     O1207   1.933       .  S
Zn1204     O1209   1.993       .  S
Zn1204     O1211   2.039       .  S
Zn1204     O1215   1.999       .  S
Zn1205     O1207   1.932       .  S
Zn1205     O1210   2.040       .  S
Zn1205     O1213   1.991       .  S
Zn1205     O1216   1.989       .  S
Zn1206     O1207   1.935       .  S
Zn1206     O1214   1.995       .  S
Zn1206     O1217   2.005       .  S
Zn1206     O1218   2.021       .  S
O1208      C1220   1.264       .  A
O1209      C1221   1.273       .  A
O1210      C1222   1.276       .  A
O1211      C1220   1.277       .  A
O1212      C1222   1.265       .  A
O1213      C1221   1.272       .  A
O1214      C1223   1.271       .  A
O1215      C1224   1.271       .  A
O1216      C1223   1.271       .  A
O1217      C1224   1.273       .  A
O1218      C1225   1.276       .  A
O1219      C1225   1.265       .  A
C1220      C1449   1.461       .  S
C1221      C1416   1.469       .  S
C1222      C1459   1.465       .  S
C1223      C1426   1.467       .  S
C1224      C1406   1.480       .  S
C1225      C1439   1.458       .  S
Zn1226     O1230   1.843       .  S
Zn1226     O1235   1.951   1_545  S
Zn1227     O1234   2.055       .  S
Zn1227     O1238   2.010       .  S
Zn1228     O1230   1.903       .  S
Zn1228     O1233   2.058       .  S
Zn1228     O1794   1.997   1_545  S
Zn1228     O1239   2.012       .  S
Zn1229     O1798   2.001   1_545  S
Zn1229     O1241   2.056       .  S
O1231      C1243   1.265       .  A
O1232      C1244   1.277       .  A
O1233      C1245   1.279       .  A
O1234      C1243   1.278       .  A
O1235      C1245   1.264   1_565  A
O1236     Zn1786   1.997       .  S
O1236      C1244   1.275       .  A
O1237      C1246   1.276       .  A
O1238      C1247   1.277       .  A
O1239      C1246   1.277       .  A
O1240     Zn1787   1.998       .  S
O1240      C1247   1.274       .  A
O1241      C1248   1.277       .  A
O1242      C1248   1.265   1_455  A
C1243      C1419   1.468       .  S
C1244      C1539   1.476       .  S
C1245      C1429   1.468       .  S
C1246      C1546   1.474       .  S
C1247      C1529   1.476       .  S
C1248      C1409   1.466       .  S
C1249      H1250   1.110       .  S
C1249      C1255   1.585       .  S
C1249      C1254   1.590       .  S
C1249      C1253   1.589       .  S
C1251      H1252   1.113       .  S
C1251      C1257   1.515       .  S
C1251      C1256   1.514       .  S
C1251      C1258   1.515       .  S
C1253      C1256   1.374       .  D
C1253      C1396   1.521       .  S
C1254      C1257   1.372       .  D
C1254      C1376   1.525       .  S
C1255      C1258   1.371       .  D
C1255      C1386   1.521       .  S
C1256      C1606   1.479       .  S
C1257      C1599   1.476       .  S
C1258      C1586   1.470       .  S
C1259      H1260   1.114       .  S
C1259      C1264   1.514       .  S
C1259      C1821   1.513       .  S
C1261      H1262   1.110   1_545  S
C1261      C1825   1.585   1_545  S
C1261      C1266   1.591       .  S
C1263      C1817   1.513       .  S
C1263      C1266   1.371       .  D
C1263      C1359   1.473       .  S
C1264      C1267   1.370       .  D
C1264      C1346   1.469       .  S
C1265      C1268   1.373       .  D
C1265      C1366   1.477       .  S
C1266      C1379   1.525       .  S
C1267      C1819   1.585       .  S
C1267      C1389   1.521       .  S
C1268      C1399   1.520       .  S
Zn1269     O1273   1.946       .  S
Zn1269     O1274   2.037       .  S
Zn1269     O1278   1.999       .  S
Zn1269     O1285   1.996       .  S
Zn1270     O1273   1.890       .  S
Zn1270     O1275   1.956       .  S
Zn1270     O1277   1.931       .  S
Zn1270     O1281   1.939       .  S
Zn1271     O1273   1.937       .  S
Zn1271     O1276   1.995       .  S
Zn1271     O1279   2.042       .  S
Zn1271     O1282   1.992       .  S
Zn1272     O1273   1.944       .  S
Zn1272     O1280   1.994       .  S
Zn1272     O1283   2.045       .  S
Zn1272     O1284   2.004       .  S
O1274      C1286   1.276       .  A
O1275      C1287   1.264       .  A
O1276      C1288   1.273       .  A
O1277      C1286   1.264       .  A
O1278      C1288   1.271       .  A
O1279      C1287   1.276       .  A
O1280      C1289   1.273       .  A
O1281      C1290   1.263       .  A
O1282      C1289   1.272       .  A
O1283      C1290   1.277       .  A
O1284      C1291   1.272       .  A
O1285      C1291   1.272       .  A
C1286      C1519   1.458       .  S
C1287      C1509   1.467       .  S
C1288      C1336   1.476       .  S
C1289      C1326   1.470       .  S
C1290      C1499   1.460       .  S
C1291      C1316   1.477       .  S
Zn1292     O1296   1.848       .  S
Zn1292     O1297   1.960       .  S
Zn1292     O1301   1.961       .  S
Zn1292     O1308   1.954       .  S
Zn1293     O1296   1.912       .  S
Zn1293     O1298   2.017       .  S
Zn1293     O1300   2.061       .  S
Zn1293     O1304   2.006       .  S
Zn1294     O1296   1.904       .  S
Zn1294     O1299   2.053       .  S
Zn1294     O1302   1.985       .  S
Zn1294     O1305   1.997       .  S
Zn1295     O1296   1.914       .  S
Zn1295     O1303   2.020       .  S
Zn1295     O1306   2.012       .  S
Zn1295     O1307   2.061       .  S
O1297      C1309   1.265       .  A
O1298      C1310   1.276       .  A
O1299      C1311   1.276       .  A
O1300      C1309   1.279       .  A
O1301      C1311   1.265       .  A
O1302      C1310   1.274       .  A
O1303      C1312   1.277       .  A
O1304      C1313   1.276       .  A
O1305      C1312   1.274       .  A
O1306      C1313   1.276       .  A
O1307      C1314   1.279       .  A
O1308      C1314   1.264       .  A
C1309      C1339   1.465       .  S
C1310      C1349   1.473       .  S
C1311      C1319   1.466       .  S
C1312      C1369   1.474       .  S
C1313      C1356   1.477       .  S
C1314      C1329   1.469       .  S
C1315      C1316   1.408       .  A
C1315      C1320   1.396       .  A
C1315      H1322   1.083       .  S
C1316      C1317   1.407       .  A
C1317      C1318   1.397       .  A
C1317      F1324   1.357       .  S
C1318      C1319   1.404   1_556  A
C1318      H1323   1.083       .  S
C1319      C1320   1.402   1_554  A
C1320      F1321   1.358   1_556  S
C1325      C1326   1.407       .  A
C1325      C1330   1.396       .  A
C1325      H1332   1.083       .  S
C1326      C1885   1.404       .  A
C1327      C1884   1.403   1_545  A
C1327      C1328   1.395       .  A
C1327      F1334   1.358       .  S
C1328      C1329   1.406   1_556  A
C1328      H1333   1.083       .  S
C1329      C1888   1.404   1_544  A
C1330      C1887   1.403   1_556  A
C1330      F1331   1.358   1_556  S
C1335      C1340   1.394   1_455  A
C1335      H1342   1.083       .  S
C1336      C1337   1.408       .  A
C1337      C1338   1.398       .  A
C1337      F1344   1.358       .  S
C1338      H1343   1.083       .  S
C1339      C1340   1.401   1_554  A
C1340      F1341   1.358   1_556  S
C1345      C1346   1.401       .  A
C1345      C1350   1.399       .  A
C1345      H1352   1.084   1_655  S
C1346      C1347   1.399       .  A
C1347      C1348   1.388       .  A
C1347      F1354   1.356       .  S
C1348      C1349   1.403       .  A
C1348      H1353   1.083       .  S
C1349      C1350   1.411       .  A
C1350      F1351   1.358       .  S
C1355      C1356   1.404       .  A
C1355      C1360   1.392       .  A
C1355      H1362   1.083       .  S
C1356      C1357   1.412       .  A
C1357      C1358   1.398       .  A
C1357      F1364   1.357       .  S
C1358      C1359   1.399       .  A
C1358      H1363   1.083   1_545  S
C1359      C1360   1.402       .  A
C1365      C1366   1.403       .  A
C1365      C1370   1.393       .  A
C1365      H1372   1.083   1_545  S
C1366      C1367   1.402       .  A
C1367      C1368   1.398       .  A
C1367      F1374   1.357       .  S
C1368      C1369   1.409       .  A
C1368      H1373   1.083       .  S
C1369      C1370   1.404       .  A
C1370      F1371   1.357   1_545  S
C1375      C1376   1.408       .  A
C1375      C1380   1.418       .  A
C1375      H1382   1.083       .  S
C1376      C1377   1.417       .  A
C1377      C1378   1.418       .  A
C1377      F1384   1.357       .  S
C1378      C1379   1.408       .  A
C1378      H1941   1.083   1_545  S
C1379      C1380   1.417       .  A
C1380      F1381   1.357   1_655  S
H1383      C1936   1.083       .  S
C1385      C1386   1.415       .  A
C1385      C1390   1.416       .  A
C1385      H1392   1.083       .  S
C1386      C1387   1.408       .  A
C1387      C1388   1.416       .  A
C1387      F1394   1.357       .  S
C1388      C1389   1.415       .  A
C1388      H1393   1.083       .  S
C1389      C1390   1.407       .  A
C1395      C1396   1.417       .  A
C1395      C1400   1.415       .  A
C1395      H1402   1.083       .  S
C1396      C1397   1.406       .  A
C1397      C1398   1.414       .  A
C1397      F1404   1.357       .  S
C1398      C1399   1.417       .  A
C1398      H1403   1.083       .  S
C1399      C1400   1.406       .  A
C1400      F1401   1.357       .  S
C1405      C1406   1.407       .  A
C1405      C1410   1.398       .  A
C1405      H1412   1.083   1_655  S
C1406      C1407   1.411       .  A
C1407      C1408   1.395       .  A
C1407      F1414   1.358       .  S
C1408      C1409   1.400       .  A
C1408      H1413   1.084       .  S
C1409      C1410   1.404       .  A
C1415      C1416   1.406       .  A
C1415      C1420   1.394       .  A
C1415      H1422   1.083       .  S
C1416      C1417   1.403       .  A
C1417      C1418   1.396       .  A
C1417      F1424   1.358       .  S
C1418      C1419   1.407       .  A
C1418      H1423   1.083       .  S
C1419      C1420   1.403       .  A
C1420      F1421   1.358       .  S
C1425      C1426   1.400       .  A
C1425      C1430   1.396       .  A
C1425      H1432   1.083   1_545  S
C1426      C1427   1.409       .  A
C1427      C1428   1.394       .  A
C1427      F1434   1.358       .  S
C1428      C1429   1.400       .  A
C1428      H1433   1.083       .  S
C1429      C1430   1.410       .  A
C1430      F1431   1.358   1_545  S
C1435      C1436   1.400       .  A
C1435      C1998   1.393       .  A
C1435      H1442   1.083       .  S
C1436      C1437   1.406       .  A
C1437      C1438   1.387       .  A
C1437      F1444   1.356       .  S
C1438      C1997   1.396       .  A
C1438      H1443   1.084       .  S
C1439      C1996   1.396   1_545  A
C1439      C1440   1.408       .  A
C1440      C1993   1.393   1_545  A
C1440      F1441   1.358       .  S
C1445      C1446   1.405       .  A
C1445      C1450   1.391       .  A
C1445      H1452   1.083       .  S
C1446      C1447   1.399       .  A
C1447      C1448   1.393       .  A
C1447      F1454   1.357       .  S
C1448      H1453   1.083       .  S
C1455      C1456   1.403       .  A
C1455      C1460   1.394       .  A
C1455      H1462   1.084       .  S
C1456      C1457   1.403       .  A
C1457      C1458   1.395       .  A
C1457      F1464   1.357       .  S
C1458      C1459   1.405       .  A
C1458      H1463   1.083       .  S
C1459      C1460   1.402       .  A
C1460      F1461   1.357       .  S
C1465      C1466   1.405       .  A
C1465      C2028   1.413       .  A
C1465      H1472   1.083       .  S
C1466      C1467   1.417       .  A
C1467      C2026   1.414       .  A
C1467      F1474   1.357       .  S
C1468      C2025   1.413   1_545  A
C1468      C1469   1.405       .  A
C1468      H1473   1.083       .  S
C1469      C1470   1.416       .  A
C1470      C2023   1.413   1_545  A
C1470      F1471   1.357       .  S
C1475      C1476   1.418       .  A
C1475      H1482   1.083       .  S
C1476      C1477   1.408       .  A
C1477      F1484   1.357       .  S
C1478      C1479   1.417       .  A
C1478      H1483   1.083       .  S
C1479      C1480   1.407       .  A
C1480      F1481   1.357       .  S
C1485      C1486   1.413       .  A
C1485      C1490   1.414       .  A
C1485      H1492   1.083       .  S
C1486      C1487   1.408       .  A
C1487      C1488   1.415       .  A
C1487      F1494   1.357       .  S
C1488      C1489   1.414       .  A
C1488      H1493   1.083       .  S
C1489      C1490   1.408       .  A
C1490      F1491   1.357       .  S
C1495      C1496   1.404       .  A
C1495      C1500   1.393       .  A
C1495      H2060   1.083       .  S
C1496      C1497   1.399       .  A
C1497      C1498   1.393       .  A
C1497      F1504   1.357       .  S
C1498      C1499   1.406       .  A
C1498      H1503   1.083       .  S
C1499      C1500   1.400       .  A
C1500      F1501   1.357       .  S
H1502      C2053   1.083   1_545  S
C1505      C1506   1.401       .  A
C1505      C1510   1.396       .  A
C1505      H2070   1.083       .  S
C1506      C1507   1.408       .  A
C1507      C1508   1.393       .  A
C1508      C1509   1.398       .  A
C1508      H1513   1.083       .  S
C1509      C1510   1.409       .  A
C1510      F1511   1.358       .  S
H1512      C2063   1.083       .  S
C1515      C1516   1.406       .  A
C1515      C1520   1.393       .  A
C1515      H1522   1.083       .  S
C1516      C1517   1.399       .  A
C1517      C1518   1.390       .  A
C1518      C1519   1.406       .  A
C1518      H1523   1.083       .  S
C1519      C1520   1.400       .  A
C1520      F1521   1.358       .  S
C1525      C1526   1.397       .  A
C1525      C1530   1.396       .  A
C1525      H1532   1.084       .  S
C1526      C1527   1.401       .  A
C1527      C1528   1.393       .  A
C1527      F1534   1.356       .  S
C1528      C1529   1.404       .  A
C1528      H1533   1.083       .  S
C1529      C1530   1.413       .  A
C1530      F1531   1.357       .  S
C1535      C1536   1.399       .  A
C1535      C1540   1.393       .  A
C1535      H1542   1.083       .  S
C1536      C1537   1.401       .  A
C1537      C1538   1.398       .  A
C1537      F1544   1.357       .  S
C1538      C1539   1.408       .  A
C1538      H1543   1.083       .  S
C1539      C1540   1.408       .  A
C1540      F2099   1.358       .  S
F1541      C2098   1.358       .  S
C1545      C1546   1.408       .  A
C1545      C1550   1.397       .  A
C1545      H1552   1.083       .  S
C1546      C1547   1.405       .  A
C1547      C1548   1.393       .  A
C1547      F1554   1.358       .  S
C1548      C1549   1.402       .  A
C1548      H1553   1.082       .  S
C1549      C1550   1.401       .  A
C1550      F1551   1.357       .  S
C1555      C1556   1.406       .  A
C1555      C1560   1.417       .  A
C1555      H1562   1.083       .  S
C1556      C1557   1.421       .  A
C1557      C1558   1.417       .  A
C1557      F1564   1.357       .  S
C1558      C1559   1.406       .  A
C1558      H1563   1.083       .  S
C1559      C1560   1.420       .  A
C1560      F1561   1.357       .  S
C1565      C1566   1.417       .  A
C1565      C1570   1.416       .  A
C1565      H1572   1.083       .  S
C1566      C1567   1.408       .  A
C1567      C1568   1.418       .  A
C1567      F1574   1.357       .  S
C1568      C1569   1.418       .  A
C1568      H1573   1.083       .  S
C1569      C1570   1.406       .  A
C1570      F1571   1.357       .  S
C1575      C1576   1.418       .  A
C1575      C1580   1.416       .  A
C1575      H1582   1.083       .  S
C1576      C1577   1.407       .  A
C1577      C1578   1.415       .  A
C1578      C1579   1.417       .  A
C1578      H1583   1.083       .  S
C1579      C1580   1.407       .  A
C1580      F1581   1.357       .  S
C1585      C1586   1.400       .  A
C1585      C1590   1.398       .  A
C1585      H1592   1.083       .  S
C1586      C1587   1.400       .  A
C1587      C1588   1.391       .  A
C1587      F1594   1.356       .  S
C1588      C1589   1.405       .  A
C1588      H1593   1.083       .  S
C1589      C1590   1.412       .  A
C1590      F1591   1.358       .  S
C1595      C1596   1.405       .  A
C1595      C1600   1.395       .  A
C1595      H1602   1.083       .  S
C1596      C1597   1.411       .  A
C1597      C1598   1.399       .  A
C1597      F1604   1.357   1_655  S
C1598      C1599   1.400       .  A
C1598      H1603   1.083       .  S
C1599      C1600   1.402       .  A
C1600      F1601   1.357       .  S
C1605      C1606   1.404       .  A
C1605      C1610   1.395       .  A
C1605      H1612   1.082       .  S
C1606      C1607   1.401       .  A
C1607      C1608   1.398       .  A
C1607      F1614   1.357       .  S
C1608      C1609   1.409       .  A
C1608      H1613   1.083   1_545  S
C1609      C1610   1.404       .  A
C1610      F1611   1.357       .  S
C1615      C1616   1.403       .  A
C1615      C1620   1.396       .  A
C1615      H1622   1.083       .  S
C1616      C1617   1.411       .  A
C1617      C1618   1.400       .  A
C1617      F1624   1.358       .  S
C1618      C1619   1.403       .  A
C1618      H1623   1.083       .  S
C1619      C1620   1.409       .  A
C1620      F1621   1.358       .  S
C1625      C1626   1.411       .  A
C1625      C1630   1.398       .  A
C1625      H1632   1.083       .  S
C1626      C1627   1.404       .  A
C1627      C1628   1.397       .  A
C1627      F1634   1.357       .  S
C1628      C1629   1.407       .  A
C1628      H1633   1.083       .  S
C1629      C1630   1.402       .  A
C1630      F1631   1.358       .  S
C1635      C1636   1.406       .  A
C1635      C1640   1.396       .  A
C1635      H1642   1.084       .  S
C1636      C1637   1.400       .  A
C1637      C1638   1.395       .  A
C1637      F1644   1.358       .  S
C1638      C1639   1.411       .  A
C1638      H1643   1.083       .  S
C1639      C1640   1.404       .  A
C1640      F1641   1.357       .  S
C1645      C1646   1.399       .  A
C1645      C1650   1.395   1_545  A
C1645      H1652   1.083       .  S
C1646      C1647   1.409       .  A
C1647      C2206   1.395       .  A
C1647      F1654   1.356       .  S
C1648      C2205   1.395       .  A
C1648      C1649   1.398       .  A
C1648      H1653   1.084       .  S
C1649      C2208   1.410       .  A
C1650      C2207   1.410       .  A
C1650      F1651   1.358       .  S
C1655      C1656   1.404       .  A
C1655      C1660   1.391       .  A
C1655      H1662   1.084       .  S
C1656      C1657   1.397       .  A
C1657      C1658   1.389   1_655  A
C1657      F1664   1.357       .  S
C1665      C1666   1.398       .  A
C1665      C1670   1.394       .  A
C1665      H1672   1.083       .  S
C1666      C1667   1.408       .  A
C1667      C1668   1.393       .  A
C1667      F1674   1.358       .  S
C1668      C1669   1.399       .  A
C1668      H1673   1.083       .  S
C1669      C1670   1.406       .  A
C1670      F1671   1.356       .  S
Zn1675     O1679   1.954       .  S
Zn1675     O1680   1.998       .  S
Zn1675     O1684   2.055       .  S
Zn1675     O1691   2.015       .  S
Zn1676     O1679   1.943       .  S
Zn1676     O1681   2.050       .  S
Zn1676     O1683   1.989       .  S
Zn1676     O1687   2.013       .  S
Zn1677     O1679   1.893       .  S
Zn1677     O1682   1.946       .  S
Zn1677     O1685   1.941       .  S
Zn1677     O1688   1.923       .  S
Zn1678     O1679   1.945       .  S
Zn1678     O1686   2.036       .  S
Zn1678     O1689   1.997       .  S
Zn1678     O1690   1.996       .  S
O1680      C1692   1.272       .  A
O1681      C1693   1.277       .  A
O1682      C1694   1.263       .  A
O1683      C1692   1.272       .  A
O1684      C1694   1.278       .  A
O1685      C1693   1.263       .  A
O1686      C1695   1.276       .  A
O1687      C1696   1.273       .  A
O1688      C1695   1.262       .  A
O1689      C1696   1.272       .  A
O1690      C1697   1.272       .  A
O1691      C1697   1.274       .  A
C1692      C2194   1.466       .  S
C1693      C2224   1.463       .  S
C1694      C2207   1.468       .  S
C1695      C2217   1.452       .  S
C1696      C2187   1.475       .  S
C1697      C2174   1.478       .  S
Zn1698     O1702   1.914       .  S
Zn1698     O1707   2.068       .  S
Zn1698     O1714   2.017       .  S
Zn1699     O1704   2.075       .  S
Zn1699     O1710   2.025       .  S
Zn1700     O1702   1.844       .  S
Zn1700     O1705   1.947       .  S
Zn1701     O1709   2.070       .  S
O1703      C1715   1.276       .  A
O1704      C1716   1.281       .  A
O1705      C1717   1.265       .  A
O1706      C1715   1.278       .  A
O1707      C1717   1.280       .  A
O1708      C1716   1.265       .  A
O1709      C1718   1.278       .  A
O1710      C1719   1.278       .  A
O1711      C1718   1.264       .  A
O1712      C1719   1.275       .  A
O1713      C1720   1.276       .  A
O1714      C1720   1.277       .  A
C1715      C2154   1.480       .  S
C1716      C2184   1.478       .  S
C1717      C2197   1.474       .  S
C1718      C2177   1.475       .  S
C1719      C2167   1.476       .  S
C1720      C2147   1.477       .  S
C1721      H1722   1.110       .  S
C1721      C1727   1.589       .  S
C1721      C1726   1.590       .  S
C1721      C1725   1.592       .  S
C1723      H1724   1.114       .  S
C1723      C1729   1.510       .  S
C1723      C1728   1.511       .  S
C1723      C1730   1.513       .  S
C1725      C1728   1.373       .  D
C1725      C2114   1.528       .  S
C1726      C1729   1.370       .  D
C1726      C2124   1.525       .  S
C1727      C1730   1.375       .  D
C1727      C2137   1.523       .  S
C1728      C2094   1.471       .  S
C1729      C2084   1.470       .  S
C1730      C2107   1.475       .  S
C1731      H1732   1.110       .  S
C1731      C1736   1.589   1_445  S
C1733      H1734   1.113       .  S
C1733      C1739   1.507       .  S
C1735      C1738   1.374       .  D
C1735      C2134   1.525       .  S
C1736      C1739   1.370       .  D
C1736      C2127   1.524       .  S
C1737      C1740   1.376       .  D
C1737      C2117   1.526       .  S
C1738      C2074   1.467       .  S
C1739      C2054   1.467       .  S
C1740      C2064   1.480       .  S
C1741      H1742   1.113       .  S
C1741      C1747   1.508       .  S
C1741      C1746   1.505       .  S
C1741      C1745   1.509       .  S
C1743      H1744   1.110       .  S
C1743      C1749   1.589       .  S
C1743      C1748   1.584       .  S
C1743      C1750   1.589       .  S
C1745      C1748   1.373       .  D
C1745      C1994   1.472       .  S
C1746      C1749   1.370       .  D
C1746      C2014   1.473       .  S
C1747      C1750   1.373       .  D
C1747      C2004   1.469       .  S
C1748      C2024   1.516       .  S
C1749      C2044   1.516       .  S
C1750      C2037   1.525       .  S
C1751      H1752   1.110       .  S
C1751      C1757   1.587       .  S
C1751      C1756   1.587       .  S
C1751      C1755   1.588       .  S
C1753      H1754   1.113       .  S
C1753      C1759   1.507       .  S
C1753      C1758   1.507       .  S
C1753      C1760   1.510       .  S
C1755      C1758   1.370       .  D
C1755      C2047   1.516       .  S
C1756      C1759   1.370       .  D
C1756      C2034   1.527       .  S
C1757      C1760   1.376       .  D
C1757      C2027   1.516       .  S
C1758      C2227   1.473       .  S
C1759      C2214   1.460       .  S
C1760      C2204   1.480       .  S
Zn1761     O1765   1.886       .  S
Zn1761     O1766   1.941       .  S
Zn1761     O1770   1.959       .  S
Zn1761     O1777   1.945       .  S
Zn1762     O1765   1.932       .  S
Zn1762     O1767   1.993       .  S
Zn1762     O1769   2.038       .  S
Zn1762     O1773   1.997       .  S
Zn1763     O1765   1.932       .  S
Zn1763     O1768   2.039       .  S
Zn1763     O1771   1.991       .  S
Zn1763     O1774   1.988       .  S
Zn1764     O1765   1.936       .  S
Zn1764     O1772   1.995       .  S
Zn1764     O1775   2.006       .  S
Zn1764     O1776   2.022       .  S
O1766      C1778   1.264       .  A
O1767      C1779   1.273       .  A
O1768      C1780   1.276       .  A
O1769      C1778   1.277       .  A
O1770      C1780   1.265       .  A
O1771      C1779   1.272       .  A
O1772      C1781   1.271       .  A
O1773      C1782   1.271       .  A
O1774      C1781   1.271       .  A
O1775      C1782   1.273       .  A
O1776      C1783   1.276       .  A
O1777      C1783   1.265       .  A
C1778      C2007   1.461       .  S
C1779      C1974   1.469       .  S
C1780      C2017   1.465       .  S
C1781      C1984   1.468       .  S
C1782      C1964   1.480       .  S
C1783      C1997   1.458       .  S
Zn1784     O1788   1.843       .  S
Zn1784     O1793   1.951       .  S
Zn1785     O1792   2.055       .  S
Zn1785     O1796   2.011       .  S
Zn1786     O1788   1.903       .  S
Zn1786     O1791   2.057       .  S
Zn1786     O1797   2.012       .  S
Zn1787     O1799   2.054       .  S
O1789      C1801   1.265       .  A
O1790      C1802   1.277       .  A
O1791      C1803   1.279       .  A
O1792      C1801   1.279       .  A
O1793      C1803   1.264       .  A
O1794      C1802   1.275       .  A
O1795      C1804   1.276       .  A
O1796      C1805   1.277       .  A
O1797      C1804   1.276       .  A
O1798      C1805   1.275       .  A
O1799      C1806   1.277       .  A
O1800      C1806   1.265   1_455  A
C1801      C1977   1.467       .  S
C1802      C2097   1.476       .  S
C1803      C1987   1.468       .  S
C1804      C2104   1.473       .  S
C1805      C2087   1.477       .  S
C1806      C1967   1.465       .  S
C1807      H1808   1.110       .  S
C1807      C1813   1.585       .  S
C1807      C1812   1.591       .  S
C1807      C1811   1.589       .  S
C1809      H1810   1.113       .  S
C1809      C1815   1.515       .  S
C1809      C1814   1.514       .  S
C1809      C1816   1.515       .  S
C1811      C1814   1.374       .  D
C1811      C1954   1.521       .  S
C1812      C1815   1.372       .  D
C1812      C1934   1.525       .  S
C1813      C1816   1.371       .  D
C1813      C1944   1.521       .  S
C1814      C2164   1.479       .  S
C1815      C2157   1.476       .  S
C1816      C2144   1.470       .  S
C1817      H1818   1.114       .  S
C1817      C1822   1.513   1_545  S
C1819      H1820   1.110       .  S
C1819      C1824   1.591       .  S
C1821      C1824   1.371       .  D
C1821      C1917   1.473       .  S
C1822      C1825   1.370       .  D
C1822      C1904   1.469       .  S
C1823      C1826   1.373       .  D
C1823      C1924   1.478       .  S
C1824      C1937   1.525       .  S
C1825      C1947   1.521       .  S
C1826      C1957   1.520       .  S
Zn1827     O1831   1.947       .  S
Zn1827     O1832   2.037       .  S
Zn1827     O1836   1.998       .  S
Zn1827     O1843   1.996       .  S
Zn1828     O1831   1.890       .  S
Zn1828     O1833   1.956       .  S
Zn1828     O1835   1.931       .  S
Zn1828     O1839   1.939       .  S
Zn1829     O1831   1.938       .  S
Zn1829     O1834   1.996       .  S
Zn1829     O1837   2.042       .  S
Zn1829     O1840   1.993       .  S
Zn1830     O1831   1.945       .  S
Zn1830     O1838   1.994       .  S
Zn1830     O1841   2.044       .  S
Zn1830     O1842   2.004       .  S
O1832      C1844   1.276       .  A
O1833      C1845   1.264       .  A
O1834      C1846   1.273       .  A
O1835      C1844   1.264       .  A
O1836      C1846   1.271       .  A
O1837      C1845   1.276       .  A
O1838      C1847   1.273       .  A
O1839      C1848   1.263       .  A
O1840      C1847   1.272       .  A
O1841      C1848   1.277       .  A
O1842      C1849   1.272       .  A
O1843      C1849   1.272       .  A
C1844      C2077   1.458       .  S
C1845      C2067   1.467       .  S
C1846      C1894   1.477       .  S
C1847      C1884   1.470       .  S
C1848      C2057   1.460       .  S
C1849      C1874   1.477       .  S
Zn1850     O1854   1.848       .  S
Zn1850     O1855   1.961       .  S
Zn1850     O1859   1.960       .  S
Zn1850     O1866   1.954       .  S
Zn1851     O1854   1.912       .  S
Zn1851     O1856   2.016       .  S
Zn1851     O1858   2.061       .  S
Zn1851     O1862   2.006       .  S
Zn1852     O1854   1.904       .  S
Zn1852     O1857   2.053       .  S
Zn1852     O1860   1.986       .  S
Zn1852     O1863   1.998       .  S
Zn1853     O1854   1.914       .  S
Zn1853     O1861   2.020       .  S
Zn1853     O1864   2.012       .  S
Zn1853     O1865   2.060       .  S
O1855      C1867   1.265       .  A
O1856      C1868   1.276       .  A
O1857      C1869   1.277       .  A
O1858      C1867   1.279       .  A
O1859      C1869   1.265       .  A
O1860      C1868   1.274       .  A
O1861      C1870   1.277       .  A
O1862      C1871   1.276       .  A
O1863      C1870   1.274       .  A
O1864      C1871   1.276       .  A
O1865      C1872   1.278       .  A
O1866      C1872   1.264       .  A
C1867      C1897   1.464       .  S
C1868      C1907   1.473       .  S
C1869      C1877   1.466       .  S
C1870      C1927   1.474       .  S
C1871      C1914   1.477       .  S
C1872      C1887   1.469       .  S
C1873      C1874   1.408       .  A
C1873      C1878   1.396       .  A
C1873      H1880   1.083       .  S
C1874      C1875   1.406       .  A
C1875      C1876   1.397       .  A
C1875      F1882   1.357       .  S
C1876      C1877   1.404   1_556  A
C1876      H1881   1.083       .  S
C1877      C1878   1.402   1_554  A
C1878      F1879   1.358   1_556  S
C1883      C1884   1.407       .  A
C1883      C1888   1.396       .  A
C1883      H1890   1.083       .  S
C1885      C1886   1.395       .  A
C1885      F1892   1.358       .  S
C1886      C1887   1.406   1_556  A
C1886      H1891   1.083       .  S
C1888      F1889   1.358   1_556  S
C1893      C1898   1.394   1_455  A
C1893      H1900   1.083       .  S
C1894      C1895   1.409       .  A
C1895      C1896   1.398       .  A
C1895      F1902   1.358       .  S
C1896      H1901   1.083       .  S
C1897      C1898   1.401   1_554  A
C1898      F1899   1.358   1_556  S
C1903      C1904   1.401       .  A
C1903      C1908   1.399       .  A
C1903      H1910   1.084   1_655  S
C1904      C1905   1.399       .  A
C1905      C1906   1.388       .  A
C1905      F1912   1.356       .  S
C1906      C1907   1.403       .  A
C1906      H1911   1.083       .  S
C1907      C1908   1.411       .  A
C1908      F1909   1.358       .  S
C1913      C1914   1.404       .  A
C1913      C1918   1.392       .  A
C1913      H1920   1.083       .  S
C1914      C1915   1.412       .  A
C1915      C1916   1.398       .  A
C1915      F1922   1.357       .  S
C1916      C1917   1.399       .  A
C1916      H1921   1.083       .  S
C1917      C1918   1.402       .  A
C1923      C1924   1.403       .  A
C1923      C1928   1.393       .  A
C1923      H1930   1.082       .  S
C1924      C1925   1.402       .  A
C1925      C1926   1.398       .  A
C1925      F1932   1.357       .  S
C1926      C1927   1.409       .  A
C1926      H1931   1.083       .  S
C1927      C1928   1.404       .  A
C1928      F1929   1.357       .  S
C1933      C1934   1.408       .  A
C1933      C1938   1.418       .  A
C1933      H1940   1.083       .  S
C1934      C1935   1.417       .  A
C1935      C1936   1.418       .  A
C1935      F1942   1.357       .  S
C1936      C1937   1.408       .  A
C1937      C1938   1.417       .  A
C1938      F1939   1.357   1_655  S
C1943      C1944   1.415       .  A
C1943      C1948   1.416       .  A
C1943      H1950   1.083       .  S
C1944      C1945   1.408       .  A
C1945      C1946   1.416       .  A
C1945      F1952   1.357       .  S
C1946      C1947   1.416       .  A
C1946      H1951   1.083       .  S
C1947      C1948   1.407       .  A
C1953      C1954   1.417       .  A
C1953      C1958   1.415       .  A
C1953      H1960   1.083       .  S
C1954      C1955   1.406       .  A
C1955      C1956   1.414       .  A
C1955      F1962   1.357       .  S
C1956      C1957   1.417       .  A
C1956      H1961   1.083       .  S
C1957      C1958   1.406       .  A
C1958      F1959   1.357       .  S
C1963      C1964   1.408       .  A
C1963      C1968   1.398       .  A
C1963      H1970   1.083       .  S
C1964      C1965   1.411       .  A
C1965      C1966   1.395       .  A
C1965      F1972   1.357       .  S
C1966      C1967   1.400       .  A
C1966      H1971   1.084       .  S
C1967      C1968   1.404       .  A
C1973      C1974   1.406       .  A
C1973      C1978   1.394       .  A
C1973      H1980   1.083       .  S
C1974      C1975   1.403       .  A
C1975      C1976   1.396       .  A
C1975      F1982   1.358       .  S
C1976      C1977   1.407       .  A
C1976      H1981   1.083       .  S
C1977      C1978   1.403       .  A
C1978      F1979   1.358       .  S
C1983      C1984   1.401       .  A
C1983      C1988   1.396       .  A
C1983      H1990   1.083       .  S
C1984      C1985   1.409       .  A
C1985      C1986   1.393       .  A
C1985      F1992   1.358       .  S
C1986      C1987   1.399       .  A
C1986      H1991   1.083       .  S
C1987      C1988   1.410       .  A
C1988      F1989   1.358       .  S
C1993      C1994   1.400       .  A
C1993      H2000   1.083       .  S
C1994      C1995   1.406       .  A
C1995      C1996   1.388       .  A
C1995      F2002   1.356       .  S
C1996      H2001   1.084       .  S
C1997      C1998   1.408       .  A
C1998      F1999   1.358       .  S
C2003      C2004   1.405       .  A
C2003      C2008   1.391       .  A
C2003      H2010   1.083       .  S
C2004      C2005   1.399       .  A
C2005      C2006   1.393       .  A
C2005      F2012   1.357       .  S
C2006      H2011   1.083       .  S
C2013      C2014   1.403       .  A
C2013      C2018   1.394       .  A
C2013      H2020   1.084       .  S
C2014      C2015   1.403       .  A
C2015      C2016   1.395       .  A
C2015      F2022   1.357       .  S
C2016      C2017   1.406       .  A
C2016      H2021   1.083       .  S
C2017      C2018   1.402       .  A
C2018      F2019   1.357       .  S
C2023      C2024   1.405       .  A
C2023      H2030   1.083       .  S
C2024      C2025   1.417       .  A
C2025      F2032   1.357       .  S
C2026      C2027   1.405       .  A
C2026      H2031   1.083       .  S
C2027      C2028   1.416       .  A
C2028      F2029   1.357       .  S
C2033      C2034   1.418       .  A
C2033      H2040   1.083       .  S
C2034      C2035   1.408       .  A
C2035      F2042   1.357       .  S
C2036      C2037   1.417       .  A
C2036      H2041   1.083       .  S
C2037      C2038   1.407       .  A
C2038      F2039   1.357       .  S
C2043      C2044   1.414       .  A
C2043      C2048   1.414       .  A
C2043      H2050   1.083       .  S
C2044      C2045   1.408       .  A
C2045      C2046   1.415       .  A
C2045      F2052   1.357       .  S
C2046      C2047   1.414       .  A
C2046      H2051   1.083       .  S
C2047      C2048   1.408       .  A
C2048      F2049   1.357       .  S
C2053      C2054   1.404       .  A
C2053      C2058   1.393       .  A
C2054      C2055   1.399       .  A
C2055      C2056   1.393       .  A
C2055      F2062   1.357       .  S
C2056      C2057   1.406       .  A
C2056      H2061   1.083       .  S
C2057      C2058   1.400       .  A
C2058      F2059   1.357   1_565  S
C2063      C2064   1.401       .  A
C2063      C2068   1.396       .  A
C2064      C2065   1.408       .  A
C2065      C2066   1.393       .  A
C2066      C2067   1.398       .  A
C2066      H2071   1.083       .  S
C2067      C2068   1.409       .  A
C2068      F2069   1.358       .  S
C2073      C2074   1.406       .  A
C2073      C2078   1.393       .  A
C2073      H2080   1.083       .  S
C2074      C2075   1.399       .  A
C2075      C2076   1.390       .  A
C2076      C2077   1.406       .  A
C2076      H2081   1.083       .  S
C2077      C2078   1.400       .  A
C2078      F2079   1.358       .  S
C2083      C2084   1.397       .  A
C2083      C2088   1.396       .  A
C2083      H2090   1.084       .  S
C2084      C2085   1.401       .  A
C2085      C2086   1.393       .  A
C2085      F2092   1.356       .  S
C2086      C2087   1.404       .  A
C2086      H2091   1.083       .  S
C2087      C2088   1.413       .  A
C2088      F2089   1.357   1_565  S
C2093      C2094   1.399       .  A
C2093      C2098   1.392       .  A
C2093      H2100   1.083       .  S
C2094      C2095   1.401       .  A
C2095      C2096   1.398       .  A
C2095      F2102   1.357       .  S
C2096      C2097   1.408       .  A
C2096      H2101   1.083       .  S
C2097      C2098   1.408       .  A
C2103      C2104   1.408       .  A
C2103      C2108   1.397       .  A
C2103      H2110   1.083       .  S
C2104      C2105   1.405       .  A
C2105      C2106   1.393       .  A
C2105      F2112   1.358       .  S
C2106      C2107   1.402       .  A
C2106      H2111   1.082       .  S
C2107      C2108   1.401       .  A
C2108      F2109   1.357       .  S
C2113      C2114   1.406       .  A
C2113      C2118   1.417       .  A
C2113      H2120   1.083       .  S
C2114      C2115   1.421       .  A
C2115      C2116   1.417       .  A
C2115      F2122   1.357       .  S
C2116      C2117   1.406       .  A
C2116      H2121   1.083   1_565  S
C2117      C2118   1.420       .  A
C2118      F2119   1.357       .  S
C2123      C2124   1.417       .  A
C2123      C2128   1.416       .  A
C2123      H2130   1.083       .  S
C2124      C2125   1.408       .  A
C2125      C2126   1.418       .  A
C2125      F2132   1.357       .  S
C2126      C2127   1.418       .  A
C2126      H2131   1.083   1_565  S
C2127      C2128   1.406       .  A
C2128      F2129   1.357       .  S
C2133      C2134   1.418       .  A
C2133      C2138   1.416       .  A
C2133      H2140   1.083       .  S
C2134      C2135   1.407       .  A
C2135      C2136   1.415       .  A
C2136      C2137   1.417       .  A
C2136      H2141   1.083       .  S
C2137      C2138   1.407       .  A
C2138      F2139   1.357       .  S
C2143      C2144   1.400       .  A
C2143      C2148   1.398       .  A
C2143      H2150   1.083       .  S
C2144      C2145   1.400       .  A
C2145      C2146   1.391       .  A
C2145      F2152   1.356       .  S
C2146      C2147   1.405       .  A
C2146      H2151   1.083       .  S
C2147      C2148   1.412       .  A
C2148      F2149   1.358       .  S
C2153      C2154   1.405       .  A
C2153      C2158   1.395       .  A
C2153      H2160   1.083       .  S
C2154      C2155   1.411       .  A
C2155      C2156   1.399       .  A
C2155      F2162   1.357   1_655  S
C2156      C2157   1.400       .  A
C2156      H2161   1.083       .  S
C2157      C2158   1.402       .  A
C2158      F2159   1.357       .  S
C2163      C2164   1.403       .  A
C2163      C2168   1.395       .  A
C2163      H2170   1.082       .  S
C2164      C2165   1.401       .  A
C2165      C2166   1.398       .  A
C2165      F2172   1.357       .  S
C2166      C2167   1.409       .  A
C2166      H2171   1.083       .  S
C2167      C2168   1.404       .  A
C2168      F2169   1.357       .  S
C2173      C2174   1.403       .  A
C2173      C2178   1.396       .  A
C2173      H2180   1.083       .  S
C2174      C2175   1.411       .  A
C2175      C2176   1.400       .  A
C2175      F2182   1.358       .  S
C2176      C2177   1.403       .  A
C2176      H2181   1.083       .  S
C2177      C2178   1.408       .  A
C2178      F2179   1.358       .  S
C2183      C2184   1.411       .  A
C2183      C2188   1.398       .  A
C2183      H2190   1.083       .  S
C2184      C2185   1.404       .  A
C2185      C2186   1.397       .  A
C2185      F2192   1.357       .  S
C2186      C2187   1.407       .  A
C2186      H2191   1.083       .  S
C2187      C2188   1.402       .  A
C2188      F2189   1.358       .  S
C2193      C2194   1.406       .  A
C2193      C2198   1.395       .  A
C2193      H2200   1.084       .  S
C2194      C2195   1.400       .  A
C2195      C2196   1.395       .  A
C2195      F2202   1.358   1_565  S
C2196      C2197   1.410       .  A
C2196      H2201   1.083   1_565  S
C2197      C2198   1.403       .  A
C2198      F2199   1.357       .  S
C2203      C2204   1.399       .  A
C2203      C2208   1.395       .  A
C2203      H2210   1.083       .  S
C2204      C2205   1.409       .  A
C2205      F2212   1.356       .  S
C2206      C2207   1.398   1_545  A
C2206      H2211   1.084       .  S
C2208      F2209   1.358       .  S
C2213      C2214   1.403       .  A
C2213      C2218   1.391       .  A
C2213      H2220   1.084       .  S
C2214      C2215   1.397       .  A
C2215      C2216   1.389   1_655  A
C2215      F2222   1.358       .  S
C2223      C2224   1.398       .  A
C2223      C2228   1.394       .  A
C2223      H2230   1.083       .  S
C2224      C2225   1.408       .  A
C2225      C2226   1.393       .  A
C2225      F2232   1.358       .  S
C2226      C2227   1.399       .  A
C2226      H2231   1.083       .  S
C2227      C2228   1.406       .  A
C2228      F2229   1.356       .  S
