geometry optimzed in LAMMPS
_audit_creation_date              2020-11-30 
_audit_creation_method            'lammps2cif' 
_symmetry_space_group_name_H-M    'P1' 
_symmetry_Int_Tables_number       1 
_symmetry_cell_setting            triclinic 
loop_ 
_symmetry_equiv_pos_as_xyz 
  x,y,z 
_cell_length_a                    48.95554821 
_cell_length_b                    49.0527766428036 
_cell_length_c                    33.86206472395864 
_cell_angle_alpha                 88.50789397612634 
_cell_angle_beta                  89.12034630059028 
_cell_angle_gamma                 81.76367699717284 
loop_ 
_atom_site_label 
_atom_site_type_symbol 
_atom_site_fract_x 
_atom_site_fract_y 
_atom_site_fract_z 
_atom_site_charge 
O1          O  0.47375404  0.44516946  0.47962085    -0.79600
O2          O  0.04932380  0.99580922  0.04517232    -0.79600
O3          O  0.02510010  0.51010955  0.41702077    -0.79600
O4          O  0.98867627  0.48055380  0.08620036    -0.79600
O5          O  0.04980616  0.99268860  0.46715399    -0.79700
O6          O  0.50803572  0.45591612  0.03542871    -0.79600
O7          O  0.02434647  0.51720217  0.09146639    -0.79600
O8          O  0.00138817  0.46531641  0.44128227    -0.79700
C9          C  0.98921180  0.44388022  0.44880980     1.10100
C10         C  0.04738340  0.50307097  0.08243000     1.10000
C11         C  0.04751070  0.99830121  0.43091019     1.10100
C12         C  0.50195011  0.45772140  0.07184997     1.10000
O13         O  0.45122244  0.47840799  0.03680274    -0.79600
O14         O  0.02482247  0.05130139  0.46183034    -0.79700
O15         O  0.47109858  0.00725960  0.40345158    -0.79600
O16         O  0.48533823  0.06043066  0.04782428    -0.79600
O17         O  0.02861578  0.05398882  0.03879645    -0.79700
O18         O  0.45191530  0.49732505  0.46018992    -0.79600
O19         O  0.44771110  0.02344384  0.04645850    -0.79600
O20         O  0.48198340  0.04867019  0.45227704    -0.79700
Co21       Co  0.48340048  0.47852631  0.49792169     1.51500
Co22       Co  0.03615477  0.02162151  0.00218842     1.51700
Co23       Co  0.98980319  0.00700078  0.45155202     1.51600
Co24       Co  0.48704032  0.51921744  0.06411011     1.51500
O25         O  0.50171460  0.51139488  0.50835875    -1.41600
C26         C  0.43773969  0.50055525  0.04898349     1.10000
C27         C  0.00094995  0.06132376  0.44884034     1.10100
C28         C  0.44964251  0.00109134  0.42087283     1.10000
C29         C  0.50779056  0.07001969  0.05066149     1.10000
C30         C  0.00847932  0.28025825  0.23078437     0.02800
C31         C  0.00617969  0.27905523  0.27242159     0.02800
C32         C  0.00457470  0.25359583  0.29143763    -0.17700
C33         C  0.00615541  0.22915999  0.27034561     0.02800
C34         C  0.00941043  0.23010398  0.22869646     0.02800
C35         C  0.01029261  0.25579921  0.20942996    -0.17700
H36         H  0.01204038  0.25684249  0.17749544     0.04800
H37         H  0.00211484  0.25275802  0.32331438     0.04800
C38         C  0.27273194  0.98959383  0.22609267     0.02800
C39         C  0.27500029  0.98821280  0.26778914     0.02800
C40         C  0.25089992  0.98745886  0.29078847    -0.17700
C41         C  0.22500801  0.98816853  0.27303309     0.02800
C42         C  0.22292826  0.98954882  0.23141324     0.02800
C43         C  0.24690407  0.98990755  0.20852758    -0.17700
H44         H  0.24537710  0.99101171  0.17655735     0.04800
H45         H  0.25220361  0.98688501  0.32277067     0.04800
C46         C  0.11717828  0.97943075  0.11773155    -0.01500
C47         C  0.11752447  0.99342240  0.15342926     0.07100
C48         C  0.09609922  0.51039299  0.16725180    -0.07500
C49         C  0.07145424  0.51266358  0.14603836     0.04500
C50         C  0.06842621  0.99802123  0.10863216    -0.14700
C51         C  0.09297301  0.98192265  0.09575729    -0.08000
C52         C  0.14363620  0.99287483  0.17553252     0.05500
C53         C  0.15846336  0.01526614  0.17135966    -0.09100
C54         C  0.18438681  0.01449938  0.18888013     0.00500
C55         C  0.19578931  0.99102312  0.21133202     0.00300
C56         C  0.18271921  0.46834403  0.21803835    -0.12700
C57         C  0.15683731  0.46885638  0.20090966     0.00800
C58         C  0.19912088  0.03776778  0.18277093     0.40100
C59         C  0.14165624  0.44617132  0.20909119     0.36700
C60         C  0.14164319  0.96283776  0.10252579     0.36500
C61         C  0.04805027  0.53111896  0.16051676     0.37200
N62         N  0.21107125  0.05627755  0.17744944    -0.43600
N63         N  0.12935912  0.42815052  0.21620875    -0.44000
N64         N  0.02928936  0.54569598  0.17265845    -0.41400
N65         N  0.16114490  0.94936407  0.09037072    -0.42800
H66         H  0.09359036  0.97160018  0.06774858     0.13300
H67         H  0.09728361  0.52312250  0.19274065     0.09800
H68         H  0.14998065  0.03317102  0.15365904     0.10900
H69         H  0.19181640  0.44998858  0.23415965     0.16700
C70         C  0.09775200  0.50295628  0.34307390    -0.01500
C71         C  0.12098380  0.99044363  0.35704352     0.07100
C72         C  0.12120609  0.97664761  0.39375486    -0.07500
C73         C  0.09739550  0.97783947  0.41726338     0.04500
C74         C  0.07229580  0.99344963  0.40437664    -0.14700
C75         C  0.07319092  0.50504488  0.36550445    -0.08000
C76         C  0.14764357  0.98963715  0.33494685     0.05500
C77         C  0.15833320  0.01434604  0.32693220    -0.09100
C78         C  0.18417785  0.01415304  0.30843426     0.00500
C79         C  0.19984206  0.98895122  0.29803837     0.00300
C80         C  0.19214169  0.46324194  0.31036488    -0.12700
C81         C  0.16614455  0.46241520  0.32768985     0.00800
C82         C  0.19446124  0.03993949  0.30063402     0.40100
C83         C  0.15666156  0.43600194  0.33304944     0.36700
C84         C  0.09751053  0.51687137  0.30494322     0.36500
C85         C  0.09989257  0.96310138  0.45482947     0.37200
N86         N  0.20296691  0.06049352  0.29455422    -0.43600
N87         N  0.14904831  0.41484993  0.33750132    -0.44000
N88         N  0.10209795  0.95137727  0.48497307    -0.41400
N89         N  0.09737155  0.52783536  0.27425834    -0.42800
H90         H  0.05502375  0.51827699  0.35488140     0.13300
H91         H  0.14039077  0.96533368  0.40460678     0.09800
H92         H  0.14657892  0.03377639  0.33546718     0.10900
H93         H  0.20469434  0.44422980  0.30176981     0.16700
C94         C  0.39060591  0.47930414  0.12903852    -0.01500
C95         C  0.36591612  0.49730881  0.12215049     0.07100
C96         C  0.36395528  0.01537711  0.08888131    -0.07500
C97         C  0.38733165  0.01763016  0.06519385     0.04500
C98         C  0.41233830  0.49973320  0.07260544    -0.14700
C99         C  0.41331567  0.48029691  0.10387572    -0.08000
C100        C  0.34129298  0.49628567  0.14788340     0.05500
C101        C  0.33080800  0.01701592  0.16911161    -0.09100
C102        C  0.30892724  0.01578973  0.19585653     0.00500
C103        C  0.29666230  0.99152450  0.19958714     0.00300
C104        C  0.30544052  0.47206568  0.17618442    -0.12700
C105        C  0.32763829  0.47281662  0.14997528     0.00800
C106        C  0.29886910  0.03994507  0.21811488     0.40100
C107        C  0.33622964  0.44911973  0.12597589     0.36700
C108        C  0.39342511  0.46040546  0.16266851     0.36500
C109        C  0.38535293  0.03797506  0.03341976     0.37200
N110        N  0.29083064  0.05939294  0.23581227    -0.43600
N111        N  0.34331009  0.42995513  0.10719273    -0.44000
N112        N  0.38367370  0.05431576  0.00796924    -0.41400
N113        N  0.39553077  0.44535866  0.18970347    -0.42800
H114        H  0.43225311  0.46638598  0.10945402     0.13300
H115        H  0.34484569  0.02895591  0.08321778     0.09800
H116        H  0.34058588  0.03548022  0.16681814     0.10900
H117        H  0.29493160  0.45402675  0.17761818     0.16700
C118        C  0.32807862  0.01661157  0.32942893    -0.01500
C119        C  0.35099097  0.99566720  0.32804028     0.07100
C120        C  0.35063884  0.47655912  0.30606864    -0.07500
C121        C  0.32661530  0.47350349  0.28557248     0.04500
C122        C  0.30162035  0.98996221  0.28807817    -0.14700
C123        C  0.30368692  0.01350787  0.30993102    -0.08000
C124        C  0.37635290  0.99737977  0.35122061     0.05500
C125        C  0.37741748  0.49014670  0.39573616    -0.09100
C126        C  0.40128915  0.49068746  0.41786502     0.00500
C127        C  0.42369448  0.00039656  0.39800633     0.00300
C128        C  0.42238711  0.01007751  0.35833243    -0.12700
C129        C  0.39904570  0.00873404  0.33510956     0.00800
C130        C  0.40175361  0.47871408  0.45728212     0.40100
C131        C  0.39872076  0.01923390  0.29486542     0.36700
C132        C  0.32909420  0.04152971  0.35072142     0.36500
C133        C  0.32718982  0.44953704  0.26163209     0.37200
N134        N  0.40188382  0.46863774  0.48857019    -0.42100
N135        N  0.39840257  0.02770526  0.26262950    -0.44000
N136        N  0.32815829  0.42999212  0.24295109    -0.41400
N137        N  0.32978154  0.06162553  0.36759420    -0.42800
H138        H  0.28615438  0.02970295  0.31145633     0.13300
H139        H  0.36925043  0.46205917  0.30162445     0.09800
H140        H  0.35985538  0.48210022  0.40915760     0.10900
H141        H  0.43967385  0.01873255  0.34521922     0.16700
C142        C  0.48601162  0.16839612  0.18472795    -0.01500
C143        C  0.00821903  0.15939814  0.15537946     0.07100
C144        C  0.03136732  0.17329922  0.15486786    -0.07500
C145        C  0.03255262  0.19573318  0.17929645     0.04500
C146        C  0.00995123  0.20508700  0.20435063    -0.14700
C147        C  0.48681313  0.19147710  0.20811402    -0.08000
C148        C  0.00773950  0.13595377  0.12836919     0.05500
C149        C  0.48811881  0.13932365  0.09948868    -0.09100
C150        C  0.48846255  0.11823086  0.07211581     0.00500
C151        C  0.00727423  0.09266921  0.07469405     0.00300
C152        C  0.02719400  0.09085602  0.10447280    -0.12700
C153        C  0.02717678  0.11187520  0.13168936     0.00800
C154        C  0.46870957  0.12172066  0.04052583     0.40100
C155        C  0.04608810  0.10756846  0.16432821     0.36700
C156        C  0.46359094  0.15250934  0.19058463     0.36500
C157        C  0.05773407  0.20786234  0.17940165     0.37200
N158        N  0.45295705  0.12460110  0.01508861    -0.43600
N159        N  0.06090912  0.10406054  0.19086001    -0.44000
N160        N  0.07826201  0.21698043  0.17974521    -0.41400
N161        N  0.44575508  0.13964955  0.19582715    -0.42800
H162        H  0.46993701  0.19776011  0.22847832     0.13300
H163        H  0.04866240  0.16647062  0.13538264     0.09800
H164        H  0.47312262  0.15781058  0.09651391     0.10900
H165        H  0.04208482  0.07232241  0.10766169     0.16700
C166        C  0.47913635  0.18124213  0.34459303    -0.01500
C167        C  0.99984012  0.15819931  0.34604143     0.07100
C168        C  0.02383483  0.15936392  0.32305094    -0.07500
C169        C  0.02624286  0.18192288  0.29758332     0.04500
C170        C  0.00385624  0.20333459  0.29340777    -0.14700
C171        C  0.48075179  0.20316236  0.31783094    -0.08000
C172        C  0.99890058  0.13479923  0.37494143     0.05500
C173        C  0.97754218  0.11863264  0.37289530    -0.09100
C174        C  0.97635843  0.09602928  0.39877811     0.00500
C175        C  0.99785049  0.08812488  0.42617512     0.00300
C176        C  0.52035283  0.10595450  0.43056197    -0.12700
C177        C  0.52093741  0.12945416  0.40622063     0.00800
C178        C  0.95279655  0.08155647  0.39615892     0.40100
C179        C  0.54207923  0.14657915  0.41251410     0.36700
C180        C  0.45471744  0.18191503  0.36919979     0.36500
C181        C  0.05261885  0.18364543  0.27884295     0.37200
N182        N  0.93357059  0.07041976  0.39430294    -0.43600
N183        N  0.55891538  0.16039051  0.41769299    -0.44000
N184        N  0.07405019  0.18488685  0.26459004    -0.41400
N185        N  0.43514221  0.18243635  0.38891674    -0.42800
H186        H  0.46361200  0.21980454  0.31575224     0.13300
H187        H  0.04115450  0.14298198  0.32605190     0.09800
H188        H  0.96172065  0.12361436  0.35072618     0.10900
H189        H  0.53648441  0.10062805  0.45217654     0.16700
C190        C  0.03302484  0.34614725  0.19327237    -0.01500
C191        C  0.01019056  0.35877381  0.17130208     0.07100
C192        C  0.48517730  0.34712253  0.17218512    -0.07500
C193        C  0.48410756  0.32199334  0.19229948     0.04500
C194        C  0.00900315  0.30691227  0.20912240    -0.14700
C195        C  0.03236849  0.32029989  0.21166251    -0.08000
C196        C  0.01059860  0.38536246  0.14928787     0.05500
C197        C  0.02753767  0.38601042  0.11558556    -0.09100
C198        C  0.02633634  0.40984494  0.09145123     0.00500
C199        C  0.50738960  0.43298196  0.09863896     0.00300
C200        C  0.49404456  0.43361961  0.13585086    -0.12700
C201        C  0.49529285  0.40994482  0.16010982     0.00800
C202        C  0.04446108  0.40908120  0.05733341     0.40100
C203        C  0.48109964  0.41173610  0.19784541     0.36700
C204        C  0.05677258  0.35990520  0.19885142     0.36500
C205        C  0.45808971  0.31138599  0.19529871     0.37200
N206        N  0.05904136  0.40847268  0.03004233    -0.43600
N207        N  0.46981103  0.41322612  0.22814873    -0.44000
N208        N  0.43719221  0.30303448  0.19829701    -0.41400
N209        N  0.07570993  0.37101618  0.20379922    -0.42800
H210        H  0.04992316  0.31071857  0.22868349     0.13300
H211        H  0.46682624  0.35770086  0.15786582     0.09800
H212        H  0.04121316  0.36754784  0.10751884     0.10900
H213        H  0.48179156  0.45247519  0.14570234     0.16700
C214        C  0.00985628  0.39905227  0.36045828    -0.01500
C215        C  0.00054858  0.37415658  0.37210220     0.07100
C216        C  0.49542058  0.37112856  0.41515082    -0.07500
C217        C  0.49302697  0.39321197  0.44107885     0.04500
C218        C  0.99484937  0.41895268  0.42409771    -0.14700
C219        C  0.00675938  0.42125637  0.38624361    -0.08000
C220        C  0.00225276  0.35054871  0.34523953     0.05500
C221        C  0.02302228  0.32811193  0.35107578    -0.09100
C222        C  0.02492323  0.30505968  0.32715233     0.00500
C223        C  0.00541534  0.30396154  0.29704971     0.00300
C224        C  0.98447216  0.32648031  0.29144701    -0.12700
C225        C  0.98292586  0.34976967  0.31497920     0.00800
C226        C  0.04734295  0.28295120  0.33371395     0.40100
C227        C  0.96089923  0.37229409  0.30856922     0.36700
C228        C  0.02308170  0.40194862  0.32247417     0.36500
C229        C  0.48715885  0.38787654  0.48227363     0.37200
N230        N  0.06527923  0.26520099  0.33901987    -0.43600
N231        N  0.94325747  0.39041277  0.30374978    -0.44000
N232        N  0.48278018  0.38367711  0.51539849    -0.41400
N233        N  0.03392099  0.40398830  0.29214607    -0.42800
H234        H  0.01327805  0.44056871  0.37642606     0.13300
H235        H  0.49143430  0.35103187  0.42594062     0.09800
H236        H  0.03789597  0.32869184  0.37441577     0.10900
H237        H  0.96896738  0.32568033  0.26912693     0.16700
O238        O  0.47194222  0.44365573  0.98019748    -0.79600
O239        O  0.05067375  0.99595038  0.54630770    -0.79600
O240        O  0.02624025  0.50759782  0.91968283    -0.79600
O241        O  0.98899145  0.48013306  0.58327594    -0.79600
O242        O  0.04863137  0.99149807  0.96593113    -0.79700
O243        O  0.50918516  0.45781860  0.53590886    -0.79600
O244        O  0.02459784  0.51691129  0.58910637    -0.79600
O245        O  0.00216976  0.46279152  0.94559701    -0.79700
C246        C  0.98925588  0.44188424  0.95348241     1.10100
C247        C  0.04757027  0.50283026  0.57954071     1.10000
C248        C  0.04624434  0.99642905  0.92947773     1.10100
C249        C  0.50276334  0.45987732  0.57226101     1.10000
O250        O  0.45220145  0.47972174  0.53725053    -0.79600
O251        O  0.02505132  0.05011336  0.95908836    -0.79700
O252        O  0.46820277  0.00886412  0.90489578    -0.79600
O253        O  0.48430164  0.05826026  0.55110899    -0.79600
O254        O  0.02879425  0.05386021  0.54139750    -0.79700
O255        O  0.45130101  0.49584939  0.95908937    -0.79600
O256        O  0.44655037  0.02169990  0.54619343    -0.79600
O257        O  0.48147906  0.04998047  0.95167121    -0.79700
Co258      Co  0.48237382  0.47681477  0.99763991     1.51500
Co259      Co  0.03677074  0.02213451  0.50409585     1.51700
Co260      Co  0.98856164  0.00715289  0.94989479     1.51600
Co261      Co  0.48771428  0.52143727  0.56390346     1.51500
O262        O  0.50132488  0.50923912  0.00858819    -1.41600
C263        C  0.43838927  0.50177636  0.54934554     1.10000
C264        C  0.00142307  0.06059484  0.94583175     1.10100
C265        C  0.44735998  0.00276930  0.92405139     1.10000
C266        C  0.50667668  0.06790409  0.55441089     1.10000
C267        C  0.00722729  0.28129696  0.73193938     0.02800
C268        C  0.00730637  0.27885672  0.77365153     0.02800
C269        C  0.00768525  0.25279616  0.79163637    -0.17700
C270        C  0.00806830  0.22900390  0.76936825     0.02800
C271        C  0.00934200  0.23120181  0.72756326     0.02800
C272        C  0.00902062  0.25736420  0.70955178    -0.17700
H273        H  0.00944406  0.25922590  0.67753977     0.04800
H274        H  0.00694405  0.25109348  0.82367941     0.04800
C275        C  0.27259883  0.98770659  0.72757970     0.02800
C276        C  0.27450789  0.98658990  0.76945802     0.02800
C277        C  0.25022623  0.98549026  0.79220191    -0.17700
C278        C  0.22450592  0.98566256  0.77417933     0.02800
C279        C  0.22285851  0.98682098  0.73262052     0.02800
C280        C  0.24683582  0.98761367  0.70992312    -0.17700
H281        H  0.24533338  0.98859863  0.67796215     0.04800
H282        H  0.25126065  0.98505806  0.82416486     0.04800
C283        C  0.11563750  0.97230631  0.62230730    -0.01500
C284        C  0.11756106  0.98810564  0.65605494     0.07100
C285        C  0.09710534  0.50801785  0.66414659    -0.07500
C286        C  0.07262237  0.51181773  0.64246511     0.04500
C287        C  0.06865173  0.99568565  0.61075787    -0.14700
C288        C  0.09140837  0.97615111  0.60017057    -0.08000
C289        C  0.14412369  0.98759582  0.67696824     0.05500
C290        C  0.15775155  0.01089763  0.67388905    -0.09100
C291        C  0.18338470  0.01106870  0.69168210     0.00500
C292        C  0.19604750  0.98736382  0.71235636     0.00300
C293        C  0.18316378  0.46538327  0.71588205    -0.12700
C294        C  0.15780626  0.46503252  0.69735437     0.00800
C295        C  0.19608572  0.03587128  0.68889430     0.40100
C296        C  0.14370913  0.44135727  0.70362235     0.36700
C297        C  0.13879584  0.95324402  0.60832901     0.36500
C298        C  0.05069658  0.53268602  0.65526343     0.37200
N299        N  0.20622226  0.05577976  0.68668295    -0.43600
N300        N  0.13237310  0.42242301  0.70895708    -0.44000
N301        N  0.03318114  0.54935049  0.66593647    -0.41400
N302        N  0.15725422  0.93792491  0.59695576    -0.42800
H303        H  0.09072970  0.96446015  0.57354116     0.13300
H304        H  0.09898404  0.52082169  0.68932617     0.09800
H305        H  0.14829615  0.02902217  0.65744205     0.10900
H306        H  0.19251992  0.44722644  0.73220246     0.16700
C307        C  0.09759328  0.49898792  0.84421532    -0.01500
C308        C  0.11902546  0.98542620  0.85423139     0.07100
C309        C  0.11942765  0.97259646  0.89167783    -0.07500
C310        C  0.09587581  0.97484245  0.91587872     0.04500
C311        C  0.07071058  0.99013986  0.90263934    -0.14700
C312        C  0.07345364  0.50060293  0.86753752    -0.08000
C313        C  0.14585602  0.98508509  0.83254004     0.05500
C314        C  0.15558290  0.01017863  0.82378102    -0.09100
C315        C  0.18178876  0.01073065  0.80674664     0.00500
C316        C  0.19895815  0.98587475  0.79854922     0.00300
C317        C  0.19203560  0.46168970  0.80955219    -0.12700
C318        C  0.16624351  0.46101752  0.82779795     0.00800
C319        C  0.19076650  0.03703957  0.79818514     0.40100
C320        C  0.15691459  0.43466751  0.83475989     0.36700
C321        C  0.09590992  0.51126095  0.80495714     0.36500
C322        C  0.09892387  0.96211819  0.95481647     0.37200
N323        N  0.19798036  0.05816767  0.79160991    -0.43600
N324        N  0.14944749  0.41354321  0.84033618    -0.44000
N325        N  0.10164431  0.95212495  0.98610706    -0.41400
N326        N  0.09444444  0.52128807  0.77360808    -0.42800
H327        H  0.05426200  0.51112964  0.85564904     0.13300
H328        H  0.13871396  0.96173898  0.90291346     0.09800
H329        H  0.14282927  0.02941134  0.83083450     0.10900
H330        H  0.20446714  0.44261223  0.80105194     0.16700
C331        C  0.38916739  0.48104702  0.62745140    -0.01500
C332        C  0.36475431  0.49915180  0.61932087     0.07100
C333        C  0.36248489  0.01354188  0.58743988    -0.07500
C334        C  0.38576163  0.01580379  0.56344432     0.04500
C335        C  0.41234710  0.50083268  0.57169098    -0.14700
C336        C  0.41253277  0.48173573  0.60335343    -0.08000
C337        C  0.33964176  0.49838387  0.64415571     0.05500
C338        C  0.33183445  0.01387478  0.67075144    -0.09100
C339        C  0.31043423  0.01271816  0.69839401     0.00500
C340        C  0.29659250  0.98936375  0.70066107     0.00300
C341        C  0.30346097  0.47398676  0.67098041    -0.12700
C342        C  0.32514982  0.47553929  0.64410724     0.00800
C343        C  0.30223048  0.03638030  0.72247174     0.40100
C344        C  0.33235852  0.45336307  0.61695215     0.36700
C345        C  0.39085614  0.46230614  0.66127562     0.36500
C346        C  0.38360532  0.03618196  0.53171232     0.37200
N347        N  0.29579555  0.05559926  0.74139600    -0.43600
N348        N  0.33821470  0.43557762  0.59523971    -0.44000
N349        N  0.38168419  0.05242267  0.50612450    -0.41400
N350        N  0.39185904  0.44750545  0.68856347    -0.42800
H351        H  0.43128636  0.46785816  0.61002211     0.13300
H352        H  0.34350010  0.02747615  0.58250315     0.09800
H353        H  0.34282665  0.03158169  0.66967697     0.10900
H354        H  0.29259334  0.45619839  0.67108052     0.16700
C355        C  0.32466039  0.01648636  0.83442269    -0.01500
C356        C  0.34822889  0.99633637  0.83381614     0.07100
C357        C  0.35170487  0.47828993  0.79991727    -0.07500
C358        C  0.32731164  0.47445351  0.78078244     0.04500
C359        C  0.30061657  0.98920006  0.79059249    -0.14700
C360        C  0.30100840  0.01246360  0.81383126    -0.08000
C361        C  0.37305487  0.99919620  0.85751438     0.05500
C362        C  0.37654737  0.49405405  0.89133101    -0.09100
C363        C  0.39994646  0.49369272  0.91481043     0.00500
C364        C  0.42055414  0.00282778  0.90334403     0.00300
C365        C  0.41655972  0.01680880  0.86654795    -0.12700
C366        C  0.39303532  0.01534389  0.84395270     0.00800
C367        C  0.39781034  0.48471202  0.95547648     0.40100
C368        C  0.38994450  0.03035191  0.80668899     0.36700
C369        C  0.32443646  0.04174643  0.85538492     0.36500
C370        C  0.32811139  0.45068397  0.75637175     0.37200
N371        N  0.39568911  0.47699397  0.98779375    -0.42100
N372        N  0.38742043  0.04249257  0.77689823    -0.44000
N373        N  0.32924771  0.43138328  0.73714311    -0.41400
N374        N  0.32431630  0.06220216  0.87168651    -0.42800
H375        H  0.28285432  0.02793607  0.81512444     0.13300
H376        H  0.37046614  0.46412403  0.79476642     0.09800
H377        H  0.35767066  0.48863048  0.90459542     0.10900
H378        H  0.43202059  0.02879970  0.85507490     0.16700
C379        C  0.48720569  0.16919334  0.68294782    -0.01500
C380        C  0.00721622  0.16150367  0.65287855     0.07100
C381        C  0.02872498  0.17748044  0.64876074    -0.07500
C382        C  0.03008637  0.19982301  0.67314345     0.04500
C383        C  0.00914190  0.20707561  0.70179003    -0.14700
C384        C  0.48812493  0.19223266  0.70622180    -0.08000
C385        C  0.00712883  0.13751912  0.62684151     0.05500
C386        C  0.48546279  0.13724549  0.60274218    -0.09100
C387        C  0.48490640  0.11504408  0.57759310     0.00500
C388        C  0.00655665  0.09293230  0.57557364     0.00300
C389        C  0.02934401  0.09432827  0.59984483    -0.12700
C390        C  0.02960098  0.11604336  0.62575023     0.00800
C391        C  0.46164379  0.11554611  0.55174764     0.40100
C392        C  0.05256434  0.11514809  0.65229512     0.36700
C393        C  0.46558164  0.15252443  0.69046388     0.36500
C394        C  0.05393970  0.21399534  0.66941852     0.37200
N395        N  0.44300985  0.11596871  0.53100650    -0.43600
N396        N  0.07085286  0.11449179  0.67372052    -0.44000
N397        N  0.07334202  0.22491638  0.66642715    -0.41400
N398        N  0.44840791  0.13900028  0.69673409    -0.42800
H399        H  0.47178939  0.19796824  0.72769463     0.13300
H400        H  0.04477768  0.17220759  0.62665445     0.09800
H401        H  0.46860151  0.15416420  0.60232855     0.10900
H402        H  0.04656699  0.07775723  0.59989869     0.16700
C403        C  0.48027287  0.18182545  0.84174107    -0.01500
C404        C  0.00087045  0.15635630  0.84097145     0.07100
C405        C  0.02273031  0.15607890  0.81346606    -0.07500
C406        C  0.02568170  0.17933381  0.78977647     0.04500
C407        C  0.00539339  0.20283056  0.79132216    -0.14700
C408        C  0.48266693  0.20428658  0.81629115    -0.08000
C409        C  0.00053977  0.13258947  0.86929313     0.05500
C410        C  0.97684807  0.11954613  0.87286189    -0.09100
C411        C  0.97582608  0.09714964  0.89917380     0.00500
C412        C  0.99931365  0.08671896  0.92183247     0.00300
C413        C  0.52271507  0.10330392  0.92096238    -0.12700
C414        C  0.52335024  0.12613205  0.89558211     0.00800
C415        C  0.95044234  0.08536820  0.90174756     0.40100
C416        C  0.54749380  0.13997326  0.89592900     0.36700
C417        C  0.45683072  0.18368474  0.86844882     0.36500
C418        C  0.05078500  0.17924241  0.76687645     0.37200
N419        N  0.93001604  0.07608419  0.90401164    -0.43600
N420        N  0.56689822  0.15095337  0.89610222    -0.44000
N421        N  0.07118285  0.17892906  0.74906256    -0.41400
N422        N  0.43798139  0.18518065  0.88973597    -0.42800
H423        H  0.46665291  0.22205018  0.81651813     0.13300
H424        H  0.03831829  0.13802909  0.81183621     0.09800
H425        H  0.95908595  0.12676115  0.85470772     0.10900
H426        H  0.54065574  0.09635770  0.93886366     0.16700
C427        C  0.02585486  0.35031096  0.69685365    -0.01500
C428        C  0.00509983  0.35902933  0.66908575     0.07100
C429        C  0.48614012  0.34466567  0.66251426    -0.07500
C430        C  0.48630622  0.31896411  0.68166289     0.04500
C431        C  0.00561677  0.30845137  0.71089485    -0.14700
C432        C  0.02605315  0.32514055  0.71734122    -0.08000
C433        C  0.00530294  0.38466240  0.64503045     0.05500
C434        C  0.02021828  0.38349685  0.60934255    -0.09100
C435        C  0.02074522  0.40713533  0.58530124     0.00500
C436        C  0.50687195  0.43517007  0.59919939     0.00300
C437        C  0.49129217  0.43569743  0.63462878    -0.12700
C438        C  0.49124118  0.41200816  0.65856221     0.00800
C439        C  0.03778652  0.40458624  0.55006169     0.40100
C440        C  0.47481486  0.41370748  0.69444632     0.36700
C441        C  0.04730577  0.36675116  0.70441848     0.36500
C442        C  0.46490791  0.30274385  0.67253868     0.37200
N443        N  0.05174974  0.40234587  0.52210982    -0.43600
N444        N  0.46169655  0.41528002  0.72324134    -0.44000
N445        N  0.44792411  0.28961576  0.66499117    -0.41400
N446        N  0.06450741  0.37992322  0.71059055    -0.42800
H447        H  0.04247778  0.31826215  0.73801761     0.13300
H448        H  0.47032501  0.35177215  0.64101056     0.09800
H449        H  0.03161868  0.36397490  0.60033771     0.10900
H450        H  0.47838796  0.45450567  0.64329457     0.16700
C451        C  0.00535606  0.39718636  0.86425482    -0.01500
C452        C  0.99858545  0.37161101  0.87791943     0.07100
C453        C  0.49222363  0.36899399  0.91644912    -0.07500
C454        C  0.49041323  0.39100696  0.94241548     0.04500
C455        C  0.99404317  0.41681135  0.92909578    -0.14700
C456        C  0.00318501  0.41943362  0.88979067    -0.08000
C457        C  0.00031738  0.34783063  0.85133318     0.05500
C458        C  0.02396126  0.32802151  0.85212768    -0.09100
C459        C  0.02683615  0.30582183  0.82646488     0.00500
C460        C  0.00565054  0.30309441  0.79957036     0.00300
C461        C  0.98196422  0.32297321  0.79882880    -0.12700
C462        C  0.97920285  0.34527491  0.82437161     0.00800
C463        C  0.05202612  0.28650447  0.82749757     0.40100
C464        C  0.95448266  0.36520019  0.82275073     0.36700
C465        C  0.01438660  0.40100240  0.82396144     0.36500
C466        C  0.48487934  0.38562945  0.98372291     0.37200
N467        N  0.07226074  0.27108411  0.82828742    -0.43600
N468        N  0.93469061  0.38121606  0.82154813    -0.44000
N469        N  0.48049727  0.38115672  0.01677601    -0.41400
N470        N  0.02160510  0.40388190  0.79161587    -0.42800
H471        H  0.00790908  0.43916276  0.87854125     0.13300
H472        H  0.48909579  0.34869836  0.92753663     0.09800
H473        H  0.04036316  0.33013384  0.87254451     0.10900
H474        H  0.96549870  0.32088030  0.77854471     0.16700
O475        O  0.47247633  0.94364208  0.47874298    -0.79600
O476        O  0.05219716  0.49589096  0.04721953    -0.79600
O477        O  0.02427641  0.00991003  0.41896918    -0.79600
O478        O  0.98666174  0.97995236  0.08306221    -0.79600
O479        O  0.05057812  0.49257712  0.46525590    -0.79700
O480        O  0.50885097  0.95799169  0.03580068    -0.79600
O481        O  0.02179183  0.01713327  0.08960977    -0.79600
O482        O  0.00151136  0.96426589  0.44343515    -0.79700
C483        C  0.99007717  0.94236783  0.45104414     1.10100
C484        C  0.04493682  0.00324352  0.08034195     1.10000
C485        C  0.04797759  0.49761587  0.42889708     1.10100
C486        C  0.50270422  0.96010860  0.07223878     1.10000
O487        O  0.45180331  0.97920476  0.03814710    -0.79600
O488        O  0.02703502  0.55147224  0.45936796    -0.79700
O489        O  0.47197584  0.50712086  0.40374852    -0.79600
O490        O  0.48628575  0.55847795  0.05000866    -0.79600
O491        O  0.03175762  0.55393849  0.04010117    -0.79700
O492        O  0.45067002  0.99563784  0.45863739    -0.79600
O493        O  0.44841505  0.52238704  0.04600097    -0.79600
O494        O  0.48277368  0.54949527  0.45038734    -0.79700
Co495      Co  0.48196601  0.97685937  0.49721392     1.51500
Co496      Co  0.03873684  0.52144269  0.00399190     1.51700
Co497      Co  0.99071907  0.50822060  0.44992288     1.51600
Co498      Co  0.48663768  0.02134715  0.06339132     1.51500
O499        O  0.49995513  0.00967306  0.50904447    -1.41600
C500        C  0.43766355  0.00119120  0.04962102     1.10000
C501        C  0.00326604  0.56204530  0.44668583     1.10100
C502        C  0.45059560  0.50181759  0.42228132     1.10000
C503        C  0.50876369  0.56802486  0.05288432     1.10000
C504        C  0.01429493  0.78084826  0.23017674     0.02800
C505        C  0.01273331  0.77991724  0.27173229     0.02800
C506        C  0.01191586  0.75463323  0.29141516    -0.17700
C507        C  0.01289778  0.73009663  0.27072015     0.02800
C508        C  0.01595097  0.73070517  0.22896980     0.02800
C509        C  0.01644420  0.75626757  0.20924870    -0.17700
H510        H  0.01766622  0.75716170  0.17723488     0.04800
H511        H  0.01006289  0.75411101  0.32340206     0.04800
C512        C  0.27345858  0.49184909  0.22871155     0.02800
C513        C  0.27586622  0.49050693  0.27048086     0.02800
C514        C  0.25200331  0.48888415  0.29367943    -0.17700
C515        C  0.22621783  0.48880735  0.27626135     0.02800
C516        C  0.22396489  0.49022282  0.23471234     0.02800
C517        C  0.24766420  0.49135817  0.21153067    -0.17700
H518        H  0.24591421  0.49239984  0.17961065     0.04800
H519        H  0.25341136  0.48803745  0.32562117     0.04800
C520        C  0.11756843  0.47509748  0.12337931    -0.01500
C521        C  0.11938275  0.49212203  0.15586964     0.07100
C522        C  0.09294477  0.00848510  0.16757388    -0.07500
C523        C  0.06835571  0.01049494  0.14599428     0.04500
C524        C  0.07027950  0.49729207  0.11137119    -0.14700
C525        C  0.09330038  0.47792655  0.10143598    -0.08000
C526        C  0.14563257  0.49175981  0.17743952     0.05500
C527        C  0.15997900  0.51452953  0.17353741    -0.09100
C528        C  0.18533235  0.51452824  0.19227372     0.00500
C529        C  0.19695273  0.49118366  0.21474311     0.00300
C530        C  0.18109317  0.96849331  0.21474209    -0.12700
C531        C  0.15508112  0.96940694  0.19771235     0.00800
C532        C  0.19903424  0.53866609  0.18826521     0.40100
C533        C  0.14048882  0.94601684  0.20329400     0.36700
C534        C  0.14064076  0.45527193  0.11109252     0.36500
C535        C  0.04362545  0.02539931  0.16310240     0.37200
N536        N  0.21019521  0.55788999  0.18513737    -0.43600
N537        N  0.12878747  0.92727239  0.20793592    -0.44000
N538        N  0.02381463  0.03713104  0.17719714    -0.41400
N539        N  0.15898602  0.43919653  0.10131823    -0.42800
H540        H  0.09266964  0.46535174  0.07563319     0.13300
H541        H  0.09302085  0.01880129  0.19550025     0.09800
H542        H  0.15135407  0.53230773  0.15569665     0.10900
H543        H  0.19010366  0.94993368  0.23050923     0.16700
C544        C  0.09595960  0.00540147  0.34336186    -0.01500
C545        C  0.12207479  0.48726068  0.35783264     0.07100
C546        C  0.12073260  0.47213873  0.39326860    -0.07500
C547        C  0.09610779  0.47326835  0.41485116     0.04500
C548        C  0.07230185  0.49107842  0.40222376    -0.14700
C549        C  0.07188570  0.00667228  0.36689584    -0.08000
C550        C  0.14942996  0.48718753  0.33804007     0.05500
C551        C  0.15971692  0.51230880  0.33188347    -0.09100
C552        C  0.18552713  0.51309091  0.31382691     0.00500
C553        C  0.20142402  0.48846059  0.30168783     0.00300
C554        C  0.18982064  0.96423086  0.30757494    -0.12700
C555        C  0.16372365  0.96438123  0.32508823     0.00800
C556        C  0.19552118  0.53924855  0.30841751     0.40100
C557        C  0.15347885  0.93840234  0.33122680     0.36700
C558        C  0.09452888  0.01979765  0.30553701     0.36500
C559        C  0.09609525  0.45579698  0.44987738     0.37200
N560        N  0.20375971  0.56013131  0.30449984    -0.43600
N561        N  0.14529847  0.91755585  0.33602226    -0.44000
N562        N  0.09601471  0.44171636  0.47782410    -0.41400
N563        N  0.09340468  0.03148586  0.27534326    -0.42800
H564        H  0.05300282  0.01877016  0.35645625     0.13300
H565        H  0.13919049  0.45974207  0.40458758     0.09800
H566        H  0.14755762  0.53132557  0.34126249     0.10900
H567        H  0.20191160  0.94482057  0.29963556     0.16700
C568        C  0.39001677  0.97842655  0.12773288    -0.01500
C569        C  0.36507981  0.99580754  0.12008245     0.07100
C570        C  0.36487222  0.51686177  0.09093788    -0.07500
C571        C  0.38799158  0.51841304  0.06640850     0.04500
C572        C  0.41201274  0.99968085  0.07229010    -0.14700
C573        C  0.41295726  0.98005176  0.10331090    -0.08000
C574        C  0.34045396  0.99446284  0.14558671     0.05500
C575        C  0.33204088  0.51878753  0.17178056    -0.09100
C576        C  0.31014102  0.51774969  0.19864538     0.00500
C577        C  0.29709809  0.49394304  0.20155140     0.00300
C578        C  0.30570282  0.96932789  0.17512043    -0.12700
C579        C  0.32740692  0.97061021  0.14817635     0.00800
C580        C  0.30095236  0.54152846  0.22212350     0.40100
C581        C  0.33562000  0.94741516  0.12309506     0.36700
C582        C  0.39289728  0.95988007  0.16176614     0.36500
C583        C  0.38603402  0.53873070  0.03458032     0.37200
N584        N  0.29355473  0.56059114  0.24095257    -0.43600
N585        N  0.34215241  0.92879040  0.10305546    -0.44000
N586        N  0.38437388  0.55500111  0.00903499    -0.41400
N587        N  0.39499510  0.94527106  0.18928394    -0.42800
H588        H  0.43206249  0.96654440  0.10937606     0.13300
H589        H  0.34596562  0.53089639  0.08578023     0.09800
H590        H  0.34229206  0.53697663  0.16992013     0.10900
H591        H  0.29568283  0.95099280  0.17707370     0.16700
C592        C  0.32611869  0.51556434  0.34052609    -0.01500
C593        C  0.35061250  0.49740328  0.33362653     0.07100
C594        C  0.34904049  0.97198054  0.30639977    -0.07500
C595        C  0.32463959  0.96895291  0.28651249     0.04500
C596        C  0.30227004  0.49243665  0.29113387    -0.14700
C597        C  0.30241763  0.51326375  0.31891972    -0.08000
C598        C  0.37611172  0.49905554  0.35610438     0.05500
C599        C  0.37747603  0.98766179  0.39050014    -0.09100
C600        C  0.40070848  0.98892813  0.41384748     0.00500
C601        C  0.42436380  0.50119890  0.40057149     0.00300
C602        C  0.42289935  0.50987693  0.36053356    -0.12700
C603        C  0.39919732  0.50868012  0.33829998     0.00800
C604        C  0.40038796  0.97735336  0.45342788     0.40100
C605        C  0.39897017  0.51737405  0.29721561     0.36700
C606        C  0.32473677  0.53646170  0.37003230     0.36500
C607        C  0.32338403  0.94359204  0.26640262     0.37200
N608        N  0.39981268  0.96780840  0.48498444    -0.42100
N609        N  0.39872568  0.52418779  0.26422843    -0.44000
N610        N  0.32263657  0.92309870  0.25054345    -0.41400
N611        N  0.32358628  0.55300835  0.39397815    -0.42800
H612        H  0.28380994  0.52762861  0.32404543     0.13300
H613        H  0.36645335  0.95561934  0.30566449     0.09800
H614        H  0.36004976  0.97882482  0.40295420     0.10900
H615        H  0.44042568  0.51742990  0.34625674     0.16700
C616        C  0.49021695  0.66900627  0.18380892    -0.01500
C617        C  0.01423846  0.66054842  0.15471380     0.07100
C618        C  0.03715780  0.67484620  0.15358507    -0.07500
C619        C  0.03865832  0.69686133  0.17869729     0.04500
C620        C  0.01649264  0.70563376  0.20477713    -0.14700
C621        C  0.49132708  0.69219596  0.20687924    -0.08000
C622        C  0.01348968  0.63721094  0.12739173     0.05500
C623        C  0.48851764  0.63651244  0.10453136    -0.09100
C624        C  0.48749350  0.61480207  0.07853237     0.00500
C625        C  0.01118539  0.59335664  0.07501175     0.00300
C626        C  0.03344058  0.59298981  0.10088012    -0.12700
C627        C  0.03448166  0.61426110  0.12737643     0.00800
C628        C  0.46367221  0.61563035  0.05368527     0.40100
C629        C  0.05649661  0.61130802  0.15577548     0.36700
C630        C  0.46733806  0.65375318  0.18989935     0.36500
C631        C  0.06373233  0.70921088  0.17839843     0.37200
N632        N  0.44459004  0.61616574  0.03377282    -0.43600
N633        N  0.07402008  0.60892029  0.17870443    -0.44000
N634        N  0.08412189  0.71858615  0.17851402    -0.41400
N635        N  0.44906012  0.64147484  0.19514511    -0.42800
H636        H  0.47442025  0.69893437  0.22699085     0.13300
H637        H  0.05403636  0.66865308  0.13317256     0.09800
H638        H  0.47172099  0.65351037  0.10493111     0.10900
H639        H  0.04954905  0.57532899  0.10173029     0.16700
C640        C  0.48165713  0.68392227  0.34398585    -0.01500
C641        C  0.00428259  0.65987876  0.34664257     0.07100
C642        C  0.02827322  0.66013083  0.32336433    -0.07500
C643        C  0.03144106  0.68251498  0.29798973     0.04500
C644        C  0.00981027  0.70468233  0.29421903    -0.14700
C645        C  0.48457071  0.70561505  0.31724308    -0.08000
C646        C  0.00255495  0.63636626  0.37494749     0.05500
C647        C  0.98140920  0.62014721  0.37104204    -0.09100
C648        C  0.98017118  0.59675876  0.39540886     0.00500
C649        C  0.00073605  0.58886892  0.42417636     0.00300
C650        C  0.52025556  0.60729997  0.42937473    -0.12700
C651        C  0.52088088  0.63099528  0.40557758     0.00800
C652        C  0.95806018  0.58093899  0.38888454     0.40100
C653        C  0.54199711  0.64801836  0.41247784     0.36700
C654        C  0.45757924  0.68621368  0.36949345     0.36500
C655        C  0.05782845  0.68323340  0.27876467     0.37200
N656        N  0.94007326  0.56860272  0.38353501    -0.43600
N657        N  0.55885557  0.66170621  0.41814512    -0.44000
N658        N  0.07921645  0.68376851  0.26398744    -0.41400
N659        N  0.43837298  0.68817728  0.39013460    -0.42800
H660        H  0.46838587  0.72320530  0.31545177     0.13300
H661        H  0.04499818  0.64310424  0.32601285     0.09800
H662        H  0.96617190  0.62541395  0.34817970     0.10900
H663        H  0.53615211  0.60197125  0.45131013     0.16700
C664        C  0.03496005  0.84602427  0.18440258    -0.01500
C665        C  0.00984675  0.85873402  0.16796521     0.07100
C666        C  0.48721806  0.84750111  0.17144119    -0.07500
C667        C  0.48761411  0.82178079  0.19062124     0.04500
C668        C  0.01257725  0.80744252  0.20813798    -0.14700
C669        C  0.03612118  0.82055254  0.20439260    -0.08000
C670        C  0.00827951  0.88473862  0.14428175     0.05500
C671        C  0.02340321  0.88471197  0.10879293    -0.09100
C672        C  0.02206339  0.90841238  0.08461867     0.00500
C673        C  0.50776124  0.93559700  0.09926564     0.00300
C674        C  0.49090038  0.93482616  0.13321366    -0.12700
C675        C  0.49176739  0.91092750  0.15688937     0.00800
C676        C  0.03844161  0.90675613  0.04868563     0.40100
C677        C  0.47348925  0.91144383  0.19083401     0.36700
C678        C  0.05963491  0.85896533  0.18151589     0.36500
C679        C  0.46260527  0.80934237  0.19234555     0.37200
N680        N  0.05158409  0.90529793  0.01991187    -0.43600
N681        N  0.45867622  0.91219309  0.21787570    -0.44000
N682        N  0.44254328  0.79940605  0.19398257    -0.41400
N683        N  0.07936895  0.86940116  0.17908438    -0.42800
H684        H  0.05540140  0.81085513  0.21720022     0.13300
H685        H  0.46848183  0.85719591  0.15714495     0.09800
H686        H  0.03611110  0.86590032  0.09973295     0.10900
H687        H  0.47624471  0.95271322  0.14078530     0.16700
C688        C  0.00758193  0.89964885  0.36065795    -0.01500
C689        C  0.00379739  0.87312259  0.37441108     0.07100
C690        C  0.49766192  0.86961173  0.41529987    -0.07500
C691        C  0.49393925  0.89185538  0.44100480     0.04500
C692        C  0.99670194  0.91774490  0.42634940    -0.14700
C693        C  0.00408538  0.92165762  0.38656073    -0.08000
C694        C  0.00601989  0.84975746  0.34715948     0.05500
C695        C  0.03037662  0.83092458  0.34636161    -0.09100
C696        C  0.03334814  0.80884003  0.32054678     0.00500
C697        C  0.01139357  0.80498502  0.29571960     0.00300
C698        C  0.98716825  0.82412892  0.29608583    -0.12700
C699        C  0.98445517  0.84660092  0.32125114     0.00800
C700        C  0.05927960  0.79068371  0.31930537     0.40100
C701        C  0.95932845  0.86602441  0.32052552     0.36700
C702        C  0.01484901  0.90470626  0.31991469     0.36500
C703        C  0.48786869  0.88643844  0.48214740     0.37200
N704        N  0.08014152  0.77625614  0.31800893    -0.43600
N705        N  0.93931543  0.88176504  0.32002474    -0.44000
N706        N  0.48310601  0.88216427  0.51514080    -0.41400
N707        N  0.02071047  0.90858768  0.28722582    -0.42800
H708        H  0.00629850  0.94211888  0.37528814     0.13300
H709        H  0.49512722  0.84914678  0.42629177     0.09800
H710        H  0.04722110  0.83369311  0.36569691     0.10900
H711        H  0.97012947  0.82120523  0.27727937     0.16700
O712        O  0.47242388  0.94460632  0.98173922    -0.79600
O713        O  0.05220983  0.49619317  0.54411344    -0.79600
O714        O  0.02324432  0.00856593  0.91731515    -0.79600
O715        O  0.98782302  0.97900241  0.58504391    -0.79600
O716        O  0.05087275  0.49079634  0.96876656    -0.79700
O717        O  0.50740274  0.95594685  0.53564441    -0.79600
O718        O  0.02268146  0.01623539  0.59125511    -0.79600
O719        O  0.99941202  0.96427523  0.94208542    -0.79700
C720        C  0.98770791  0.94267032  0.95032316     1.10100
C721        C  0.04580621  0.00236455  0.58180628     1.10000
C722        C  0.04914460  0.49575443  0.93239488     1.10100
C723        C  0.50042217  0.95765606  0.57183866     1.10000
O724        O  0.45037667  0.97774332  0.53535208    -0.79600
O725        O  0.02714111  0.55004996  0.96046107    -0.79700
O726        O  0.47283987  0.50411982  0.90333675    -0.79600
O727        O  0.48645219  0.56060618  0.54897446    -0.79600
O728        O  0.03119385  0.55446494  0.53889902    -0.79700
O729        O  0.44978317  0.99654894  0.96149337    -0.79600
O730        O  0.44883802  0.52382003  0.54666526    -0.79600
O731        O  0.48298689  0.54656008  0.95010808    -0.79700
Co732      Co  0.48232070  0.97812433  0.99834693     1.51500
Co733      Co  0.03850723  0.52241185  0.50186454     1.51700
Co734      Co  0.99155117  0.50589391  0.95212814     1.51600
Co735      Co  0.48525132  0.01895711  0.56463701     1.51500
O736        O  0.50042260  0.01107171  0.00792240    -1.41600
C737        C  0.43625348  0.99952413  0.54767248     1.10000
C738        C  0.00329309  0.56002848  0.94718816     1.10100
C739        C  0.45077719  0.50000235  0.92102438     1.10000
C740        C  0.50879122  0.57052008  0.55098079     1.10000
C741        C  0.00781498  0.78056122  0.73213542     0.02800
C742        C  0.00685073  0.77887789  0.77378666     0.02800
C743        C  0.00537509  0.75338632  0.79259665    -0.17700
C744        C  0.00582616  0.72931713  0.77105433     0.02800
C745        C  0.00843691  0.73066655  0.72932723     0.02800
C746        C  0.00888121  0.75645627  0.71047562    -0.17700
H747        H  0.00991027  0.75784807  0.67845137     0.04800
H748        H  0.00382369  0.75226426  0.82461352     0.04800
C749        C  0.27287040  0.49171915  0.72635241     0.02800
C750        C  0.27579710  0.49004403  0.76807368     0.02800
C751        C  0.25216505  0.48780805  0.79174868    -0.17700
C752        C  0.22620319  0.48714053  0.77479618     0.02800
C753        C  0.22365283  0.48847155  0.73327499     0.02800
C754        C  0.24702788  0.49046119  0.70975621    -0.17700
H755        H  0.24493042  0.49165421  0.67787451     0.04800
H756        H  0.25387623  0.48701270  0.82366525     0.04800
C757        C  0.11705093  0.47192014  0.62044270    -0.01500
C758        C  0.11961822  0.48860856  0.65309799     0.07100
C759        C  0.09453227  0.00655735  0.66795833    -0.07500
C760        C  0.07009087  0.01025480  0.64609980     0.04500
C761        C  0.07052388  0.49626897  0.60825529    -0.14700
C762        C  0.09271634  0.47585294  0.59848253    -0.08000
C763        C  0.14616678  0.48795396  0.67415979     0.05500
C764        C  0.15980250  0.51124000  0.67123607    -0.09100
C765        C  0.18468143  0.51193394  0.69080385     0.00500
C766        C  0.19663849  0.48880745  0.71341530     0.00300
C767        C  0.18251821  0.96402828  0.71508831    -0.12700
C768        C  0.15639749  0.96426049  0.69878286     0.00800
C769        C  0.19742575  0.53670457  0.68760336     0.40100
C770        C  0.14207202  0.94092904  0.70664744     0.36700
C771        C  0.13952470  0.45162473  0.60754149     0.36500
C772        C  0.04750788  0.02998170  0.66001702     0.37200
N773        N  0.20768362  0.55652657  0.68503231    -0.43600
N774        N  0.13068701  0.92226129  0.71384258    -0.44000
N775        N  0.02951255  0.04573939  0.67166931    -0.41400
N776        N  0.15734987  0.43521641  0.59705187    -0.42800
H777        H  0.09147841  0.46346461  0.57265138     0.13300
H778        H  0.09598682  0.01876934  0.69386635     0.09800
H779        H  0.15087268  0.52901818  0.65363164     0.10900
H780        H  0.19221851  0.94566624  0.73069585     0.16700
C781        C  0.09386834  0.00004537  0.84031446    -0.01500
C782        C  0.12295081  0.48603967  0.85958845     0.07100
C783        C  0.12353609  0.47444661  0.89777112    -0.07500
C784        C  0.09971588  0.47638009  0.92137700     0.04500
C785        C  0.07418409  0.49001527  0.90661371    -0.14700
C786        C  0.06997440  0.00194318  0.86425167    -0.08000
C787        C  0.14962078  0.48586492  0.83792981     0.05500
C788        C  0.15970299  0.51094223  0.83070050    -0.09100
C789        C  0.18545491  0.51157316  0.81232269     0.00500
C790        C  0.20140151  0.48685333  0.80047074     0.00300
C791        C  0.18971735  0.96078118  0.80848185    -0.12700
C792        C  0.16327073  0.96017323  0.82468472     0.00800
C793        C  0.19539532  0.53771559  0.80653381     0.40100
C794        C  0.15414378  0.93373893  0.83181108     0.36700
C795        C  0.09213849  0.01413899  0.80229451     0.36500
C796        C  0.10283780  0.46505915  0.96114984     0.37200
N797        N  0.20355549  0.55862143  0.80240461    -0.43600
N798        N  0.14683698  0.91255127  0.83751456    -0.44000
N799        N  0.10563378  0.45617254  0.99306275    -0.41400
N800        N  0.09051059  0.02588567  0.77215785    -0.42800
H801        H  0.05104336  0.01381787  0.85353906     0.13300
H802        H  0.14302893  0.46470310  0.90976932     0.09800
H803        H  0.14754818  0.53001589  0.83986204     0.10900
H804        H  0.20274247  0.94160839  0.80185021     0.16700
C805        C  0.38822515  0.97539077  0.62434692    -0.01500
C806        C  0.36356073  0.99348963  0.61801104     0.07100
C807        C  0.36437527  0.51813647  0.58751425    -0.07500
C808        C  0.38801478  0.51919314  0.56380122     0.04500
C809        C  0.41040179  0.99761665  0.56989208    -0.14700
C810        C  0.41114347  0.97727233  0.59993054    -0.08000
C811        C  0.33930114  0.99241277  0.64445256     0.05500
C812        C  0.33131221  0.51988431  0.67017311    -0.09100
C813        C  0.30956155  0.51830620  0.69718480     0.00500
C814        C  0.29603054  0.49474145  0.69852839     0.00300
C815        C  0.30362501  0.96823735  0.67348640    -0.12700
C816        C  0.32464179  0.96966628  0.64535509     0.00800
C817        C  0.30108511  0.54134480  0.72238338     0.40100
C818        C  0.33035787  0.94797904  0.61706929     0.36700
C819        C  0.39087492  0.95569592  0.65703517     0.36500
C820        C  0.38655463  0.53858198  0.53085527     0.37200
N821        N  0.29432942  0.55986827  0.74252202    -0.43600
N822        N  0.33483153  0.93069595  0.59424846    -0.44000
N823        N  0.38525415  0.55405831  0.50433680    -0.41400
N824        N  0.39282898  0.94011938  0.68345128    -0.42800
H825        H  0.43006298  0.96334293  0.60522088     0.13300
H826        H  0.34558898  0.53203136  0.58117693     0.09800
H827        H  0.34218261  0.53766383  0.66985985     0.10900
H828        H  0.29241060  0.95068418  0.67405680     0.16700
C829        C  0.32708004  0.51691659  0.83497723    -0.01500
C830        C  0.35185682  0.49924475  0.82732375     0.07100
C831        C  0.34799495  0.97290353  0.81087381    -0.07500
C832        C  0.32461714  0.96935104  0.78889443     0.04500
C833        C  0.30250396  0.49245411  0.78793420    -0.14700
C834        C  0.30284501  0.51347553  0.81531992    -0.08000
C835        C  0.37722813  0.50039395  0.85074984     0.05500
C836        C  0.37647862  0.98576847  0.89455178    -0.09100
C837        C  0.39970563  0.98764831  0.91769574     0.00500
C838        C  0.42484015  0.50051552  0.89792773     0.00300
C839        C  0.42542670  0.50669500  0.85699324    -0.12700
C840        C  0.40209945  0.50649419  0.83344523     0.00800
C841        C  0.40170828  0.97311204  0.95541319     0.40100
C842        C  0.40428001  0.51272319  0.79169368     0.36700
C843        C  0.32602545  0.53877284  0.86294804     0.36500
C844        C  0.32574964  0.94495477  0.76566474     0.37200
N845        N  0.40301903  0.96148379  0.98566225    -0.42100
N846        N  0.40639219  0.51764879  0.75826516    -0.44000
N847        N  0.32713585  0.92537528  0.74696446    -0.41400
N848        N  0.32517233  0.55622959  0.88546575    -0.42800
H849        H  0.28403449  0.52738441  0.82127313     0.13300
H850        H  0.36615533  0.95740812  0.81008128     0.09800
H851        H  0.36090453  0.97366164  0.90538204     0.10900
H852        H  0.44428701  0.51152136  0.84303099     0.16700
C853        C  0.48846411  0.66757569  0.68504001    -0.01500
C854        C  0.00999147  0.66081198  0.65385170     0.07100
C855        C  0.03106960  0.67741690  0.65118292    -0.07500
C856        C  0.03157993  0.69931613  0.67666086     0.04500
C857        C  0.00988002  0.70595396  0.70434657    -0.14700
C858        C  0.48795129  0.69053199  0.70896336    -0.08000
C859        C  0.01030712  0.63774116  0.62587843     0.05500
C860        C  0.48695126  0.63778930  0.60439893    -0.09100
C861        C  0.48631889  0.61650661  0.57769908     0.00500
C862        C  0.00940561  0.59408901  0.57277576     0.00300
C863        C  0.03322532  0.59638686  0.59440022    -0.12700
C864        C  0.03369462  0.61751625  0.62126874     0.00800
C865        C  0.46173178  0.61644410  0.55472245     0.40100
C866        C  0.05785208  0.61695536  0.64541529     0.36700
C867        C  0.46748124  0.64998204  0.69138630     0.36500
C868        C  0.05524894  0.71385292  0.67492076     0.37200
N869        N  0.44198049  0.61646481  0.53636672    -0.43600
N870        N  0.07719427  0.61645337  0.66479519    -0.44000
N871        N  0.07445912  0.72514034  0.67380030    -0.41400
N872        N  0.45073362  0.63584297  0.69685938    -0.42800
H873        H  0.47103739  0.69549574  0.72976759     0.13300
H874        H  0.04737235  0.67314335  0.62918919     0.09800
H875        H  0.46919723  0.65370581  0.60689077     0.10900
H876        H  0.05114652  0.58064897  0.59210249     0.16700
C877        C  0.47740633  0.67914089  0.84153003    -0.01500
C878        C  0.00011447  0.65785894  0.84555746     0.07100
C879        C  0.02382454  0.65916740  0.82198680    -0.07500
C880        C  0.02589873  0.68188862  0.79673588     0.04500
C881        C  0.00360314  0.70341865  0.79375694    -0.14700
C882        C  0.47929285  0.70184798  0.81631224    -0.08000
C883        C  0.99963283  0.63421357  0.87407379     0.05500
C884        C  0.97903189  0.61727793  0.87115239    -0.09100
C885        C  0.97869816  0.59405406  0.89612216     0.00500
C886        C  0.00000852  0.58668796  0.92405029     0.00300
C887        C  0.51920903  0.60512133  0.92897930    -0.12700
C888        C  0.51920279  0.62880864  0.90491239     0.00800
C889        C  0.95636215  0.57819045  0.89145234     0.40100
C890        C  0.53889960  0.64721244  0.91278919     0.36700
C891        C  0.45198508  0.67816476  0.86334843     0.36500
C892        C  0.05172751  0.68358330  0.77636086     0.37200
N893        N  0.93807226  0.56599067  0.88757901    -0.43600
N894        N  0.55455545  0.66207460  0.91918721    -0.44000
N895        N  0.07249357  0.68510423  0.76026436    -0.41400
N896        N  0.43153907  0.67732393  0.88064327    -0.42800
H897        H  0.46177902  0.71804555  0.81360702     0.13300
H898        H  0.04112426  0.64272608  0.82425106     0.09800
H899        H  0.96331671  0.62201749  0.84882476     0.10900
H900        H  0.53473157  0.60064301  0.95163588     0.16700
C901        C  0.03127934  0.84639657  0.69295618    -0.01500
C902        C  0.00896220  0.85751305  0.66891322     0.07100
C903        C  0.48270663  0.84509798  0.66877559    -0.07500
C904        C  0.48204404  0.82023980  0.68978736     0.04500
C905        C  0.00777941  0.80717367  0.71043909    -0.14700
C906        C  0.03050455  0.82140271  0.71355948    -0.08000
C907        C  0.00897140  0.88381379  0.64638180     0.05500
C908        C  0.02654343  0.88469940  0.61341060    -0.09100
C909        C  0.02563804  0.90866354  0.58967044     0.00500
C910        C  0.50464835  0.93297035  0.59863766     0.00300
C911        C  0.48719621  0.93244824  0.63202834    -0.12700
C912        C  0.48764115  0.90875215  0.65591929     0.00800
C913        C  0.04474479  0.90849174  0.55675445     0.40100
C914        C  0.46932007  0.90954792  0.68985225     0.36700
C915        C  0.05490574  0.86052411  0.69740603     0.36500
C916        C  0.45734475  0.80732424  0.68879547     0.37200
N917        N  0.06017988  0.90837647  0.53050882    -0.43600
N918        N  0.45471164  0.91030547  0.71711888    -0.44000
N919        N  0.43751827  0.79701655  0.68832098    -0.41400
N920        N  0.07386141  0.87183706  0.70104267    -0.42800
H921        H  0.04772587  0.81285596  0.73203485     0.13300
H922        H  0.46510638  0.85382079  0.65116129     0.09800
H923        H  0.04069981  0.86642892  0.60586500     0.10900
H924        H  0.47260693  0.95045403  0.63922700     0.16700
C925        C  0.00628070  0.89778479  0.86222516    -0.01500
C926        C  0.00121588  0.87178546  0.87664352     0.07100
C927        C  0.49465141  0.87072520  0.91730851    -0.07500
C928        C  0.49281630  0.89295366  0.94285954     0.04500
C929        C  0.99429307  0.91746486  0.92672639    -0.14700
C930        C  0.00286994  0.92031613  0.88721930    -0.08000
C931        C  0.00249799  0.84813346  0.85002443     0.05500
C932        C  0.02525245  0.82730190  0.85178075    -0.09100
C933        C  0.02749130  0.80514522  0.82612776     0.00500
C934        C  0.00638383  0.80337751  0.79871014     0.00300
C935        C  0.98370689  0.82435708  0.79682473    -0.12700
C936        C  0.98168653  0.84671206  0.82208274     0.00800
C937        C  0.05198330  0.78488899  0.82756416     0.40100
C938        C  0.95793254  0.86779930  0.81934530     0.36700
C939        C  0.01468442  0.90173840  0.82165928     0.36500
C940        C  0.49101846  0.88735730  0.98486566     0.37200
N941        N  0.07168607  0.76874410  0.82848352    -0.43600
N942        N  0.93898257  0.88481180  0.81725822    -0.44000
N943        N  0.48983393  0.88276500  0.01850491    -0.41400
N944        N  0.02141040  0.90462647  0.78908765    -0.42800
H945        H  0.00602826  0.94039990  0.87536408     0.13300
H946        H  0.49355024  0.85016504  0.92925621     0.09800
H947        H  0.04148916  0.82861307  0.87283742     0.10900
H948        H  0.96733949  0.82301828  0.77599758     0.16700
O949        O  0.97221464  0.44450141  0.47732528    -0.79600
O950        O  0.55131586  0.99795802  0.04442468    -0.79600
O951        O  0.52589387  0.51110530  0.41812504    -0.79600
O952        O  0.48860268  0.47999776  0.08500856    -0.79600
O953        O  0.55038506  0.99335527  0.46785592    -0.79700
O954        O  0.00823639  0.45588726  0.03712585    -0.79600
O955        O  0.52422924  0.51661383  0.09091207    -0.79600
O956        O  0.50304785  0.46615805  0.44390180    -0.79700
C957        C  0.49110114  0.44461047  0.45146478     1.10100
C958        C  0.54734940  0.50278258  0.08150578     1.10000
C959        C  0.54792687  0.99869606  0.43154211     1.10100
C960        C  0.00217644  0.45816728  0.07355191     1.10000
O961        O  0.95151728  0.47849759  0.03779785    -0.79600
O962        O  0.52585984  0.05207539  0.46305799    -0.79700
O963        O  0.97055302  0.00575903  0.40368047    -0.79600
O964        O  0.98358268  0.05851626  0.04817465    -0.79600
O965        O  0.53032854  0.05613465  0.03883005    -0.79700
O966        O  0.95103841  0.49681896  0.45872046    -0.79600
O967        O  0.94573255  0.02163858  0.04466859    -0.79600
O968        O  0.98096595  0.04746868  0.45193569    -0.79700
Co969      Co  0.98263279  0.47731242  0.49587586     1.51500
Co970      Co  0.53758150  0.02383136  0.00192512     1.51700
Co971      Co  0.49021335  0.00815391  0.45166197     1.51600
Co972      Co  0.98719138  0.51965945  0.06464193     1.51500
O973        O  0.00128044  0.50975944  0.50706207    -1.41600
C974        C  0.93786864  0.50074402  0.04927150     1.10000
C975        C  0.50217170  0.06230751  0.44964680     1.10100
C976        C  0.94916352  0.99960528  0.42127618     1.10000
C977        C  0.00617014  0.06796550  0.05075533     1.10000
C978        C  0.50765291  0.28161769  0.23239961     0.02800
C979        C  0.50640836  0.28029575  0.27409502     0.02800
C980        C  0.50540766  0.25472996  0.29302130    -0.17700
C981        C  0.50650825  0.23041237  0.27173269     0.02800
C982        C  0.50876868  0.23151836  0.22996743     0.02800
C983        C  0.50905673  0.25730672  0.21084341    -0.17700
H984        H  0.51008627  0.25854584  0.17884704     0.04800
H985        H  0.50377903  0.25371004  0.32500958     0.04800
C986        C  0.77222924  0.98769223  0.22565616     0.02800
C987        C  0.77523712  0.98662959  0.26723222     0.02800
C988        C  0.75162099  0.98561851  0.29131533    -0.17700
C989        C  0.72548691  0.98561179  0.27457211     0.02800
C990        C  0.72284333  0.98671474  0.23313139     0.02800
C991        C  0.74618786  0.98754753  0.20922434    -0.17700
H992        H  0.74396586  0.98863916  0.17733872     0.04800
H993        H  0.75351063  0.98528184  0.32320405     0.04800
C994        C  0.61786130  0.97684108  0.11796569    -0.01500
C995        C  0.61834263  0.98984735  0.15448834     0.07100
C996        C  0.59636913  0.50969472  0.16595735    -0.07500
C997        C  0.57169548  0.51218765  0.14483848     0.04500
C998        C  0.56984305  0.99775928  0.10849456    -0.14700
C999        C  0.59383196  0.98078143  0.09555521    -0.08000
C1000       C  0.64434244  0.98889341  0.17680335     0.05500
C1001       C  0.65648588  0.01304550  0.17899292    -0.09100
C1002       C  0.68188702  0.01278843  0.19756106     0.00500
C1003       C  0.69562242  0.98794956  0.21402218     0.00300
C1004       C  0.68265417  0.46620648  0.21608354    -0.12700
C1005       C  0.65670256  0.46722048  0.19907797     0.00800
C1006       C  0.69354698  0.03814660  0.19931663     0.40100
C1007       C  0.64128686  0.44465608  0.20681850     0.36700
C1008       C  0.64213615  0.96049176  0.10173887     0.36500
C1009       C  0.54852773  0.53098085  0.15925147     0.37200
N1010       N  0.70290122  0.05846681  0.20071925    -0.43600
N1011       N  0.62884501  0.42670127  0.21363168    -0.44000
N1012       N  0.52997685  0.54584977  0.17136227    -0.41400
N1013       N  0.66142977  0.94728899  0.08850201    -0.42800
H1014       H  0.59428049  0.97120209  0.06699770     0.13300
H1015       H  0.59773166  0.52241652  0.19136033     0.09800
H1016       H  0.64622223  0.03209076  0.16564475     0.10900
H1017       H  0.69158951  0.44765276  0.23190332     0.16700
C1018       C  0.59731678  0.50058917  0.34183327    -0.01500
C1019       C  0.62083297  0.98826486  0.35684811     0.07100
C1020       C  0.62060627  0.97385962  0.39303644    -0.07500
C1021       C  0.59686219  0.97583421  0.41679944     0.04500
C1022       C  0.57234959  0.99279895  0.40462094    -0.14700
C1023       C  0.57318843  0.50352569  0.36531340    -0.08000
C1024       C  0.64764831  0.98727733  0.33519709     0.05500
C1025       C  0.65967481  0.01152867  0.33059699    -0.09100
C1026       C  0.68594830  0.01103608  0.31331643     0.00500
C1027       C  0.70050488  0.98602567  0.30000075     0.00300
C1028       C  0.69174006  0.46074707  0.30875241    -0.12700
C1029       C  0.66571736  0.46035612  0.32639465     0.00800
C1030       C  0.69774346  0.03632787  0.30966866     0.40100
C1031       C  0.65631913  0.43408787  0.33384212     0.36700
C1032       C  0.59614682  0.51272552  0.30250113     0.36500
C1033       C  0.59881746  0.96049835  0.45389173     0.37200
N1034       N  0.70744461  0.05647870  0.30705914    -0.43600
N1035       N  0.64885407  0.41303700  0.34011731    -0.44000
N1036       N  0.60063670  0.94826123  0.48364327    -0.41400
N1037       N  0.59507346  0.52240371  0.27094237    -0.42800
H1038       H  0.55457964  0.51562871  0.35400574     0.13300
H1039       H  0.63944098  0.96157602  0.40338256     0.09800
H1040       H  0.64866927  0.03081002  0.34108649     0.10900
H1041       H  0.70411278  0.44154684  0.30055441     0.16700
C1042       C  0.89119857  0.48178349  0.13106862    -0.01500
C1043       C  0.86537546  0.49613709  0.11992595     0.07100
C1044       C  0.86066581  0.01160338  0.08203631    -0.07500
C1045       C  0.88429306  0.01383968  0.05878288     0.04500
C1046       C  0.91236776  0.49981755  0.07236954    -0.14700
C1047       C  0.91426760  0.48332682  0.10691666    -0.08000
C1048       C  0.84066320  0.49451624  0.14503266     0.05500
C1049       C  0.82685159  0.01601122  0.16246282    -0.09100
C1050       C  0.80587530  0.01470914  0.19071698     0.00500
C1051       C  0.79549875  0.98966625  0.19798365     0.00300
C1052       C  0.80652550  0.46870244  0.17470590    -0.12700
C1053       C  0.82835714  0.47024284  0.14801447     0.00800
C1054       C  0.79486801  0.03940879  0.21115579     0.40100
C1055       C  0.83800848  0.44663195  0.12434043     0.36700
C1056       C  0.89465298  0.46627677  0.16796258     0.36500
C1057       C  0.88204522  0.03201915  0.02441463     0.37200
N1058       N  0.78600978  0.05926847  0.22739667    -0.43600
N1059       N  0.84582910  0.42765262  0.10554635    -0.44000
N1060       N  0.88026208  0.04653397  0.99679224    -0.41400
N1061       N  0.89735891  0.45409594  0.19771012    -0.42800
H1062       H  0.93408430  0.47210206  0.11557872     0.13300
H1063       H  0.84112837  0.02375359  0.07430248     0.09800
H1064       H  0.83540083  0.03507131  0.15772228     0.10900
H1065       H  0.79693175  0.45009650  0.17677493     0.16700
C1066       C  0.82953804  0.01592411  0.32508932    -0.01500
C1067       C  0.85124682  0.99373203  0.32717361     0.07100
C1068       C  0.85039026  0.47437096  0.30610114    -0.07500
C1069       C  0.82668829  0.47067364  0.28521965     0.04500
C1070       C  0.80215134  0.98863345  0.28631270    -0.14700
C1071       C  0.80518737  0.01310478  0.30528925    -0.08000
C1072       C  0.87639917  0.99537913  0.35082778     0.05500
C1073       C  0.87639466  0.49040723  0.39363543    -0.09100
C1074       C  0.89999628  0.49131911  0.41625758     0.00500
C1075       C  0.92324244  0.99891119  0.39836000     0.00300
C1076       C  0.92213871  0.00852707  0.35864904    -0.12700
C1077       C  0.89901682  0.00701297  0.33512144     0.00800
C1078       C  0.90002306  0.47978831  0.45590597     0.40100
C1079       C  0.89879778  0.01761127  0.29492956     0.36700
C1080       C  0.83177632  0.04178402  0.34322784     0.36500
C1081       C  0.82763630  0.44618409  0.26226613     0.37200
N1082       N  0.89968301  0.47010002  0.48739922    -0.42100
N1083       N  0.89842421  0.02617135  0.26273932    -0.44000
N1084       N  0.82894366  0.42636696  0.24410429    -0.41400
N1085       N  0.83361531  0.06260293  0.35752076    -0.42800
H1086       H  0.78838438  0.03010872  0.30462607     0.13300
H1087       H  0.86885309  0.45938097  0.30376587     0.09800
H1088       H  0.85884689  0.48212160  0.40670274     0.10900
H1089       H  0.93941879  0.01730396  0.34573053     0.16700
C1090       C  0.98619755  0.16790244  0.18167249    -0.01500
C1091       C  0.50747498  0.16048182  0.15730462     0.07100
C1092       C  0.52996401  0.17524379  0.15504094    -0.07500
C1093       C  0.53110345  0.19793219  0.17893490     0.04500
C1094       C  0.50915755  0.20655744  0.20549950    -0.14700
C1095       C  0.98702468  0.19080128  0.20538604    -0.08000
C1096       C  0.50714342  0.13698040  0.13046754     0.05500
C1097       C  0.98800270  0.13802265  0.09829427    -0.09100
C1098       C  0.98737243  0.11647279  0.07190896     0.00500
C1099       C  0.50846812  0.09451056  0.07513574     0.00300
C1100       C  0.52762310  0.09239181  0.10593833    -0.12700
C1101       C  0.52678425  0.11306230  0.13387059     0.00800
C1102       C  0.96650429  0.11943939  0.04183872     0.40100
C1103       C  0.54529342  0.10873717  0.16697028     0.36700
C1104       C  0.96315603  0.15268959  0.18608758     0.36500
C1105       C  0.55562671  0.21113264  0.17667025     0.37200
N1106       N  0.94978147  0.12181736  0.01771369    -0.43600
N1107       N  0.55983510  0.10521132  0.19381512    -0.44000
N1108       N  0.57565997  0.22110971  0.17483111    -0.41400
N1109       N  0.94487379  0.14025916  0.19000502    -0.42800
H1110       H  0.96969977  0.19757209  0.22479183     0.13300
H1111       H  0.54676836  0.16891755  0.13451464     0.09800
H1112       H  0.97301196  0.15651384  0.09552231     0.10900
H1113       H  0.54260594  0.07390964  0.10921848     0.16700
C1114       C  0.97747212  0.17965854  0.34179254    -0.01500
C1115       C  0.50161149  0.15985459  0.34837895     0.07100
C1116       C  0.52521086  0.16086689  0.32445962    -0.07500
C1117       C  0.52703123  0.18315989  0.29822916     0.04500
C1118       C  0.50461871  0.20459729  0.29484555    -0.14700
C1119       C  0.97955753  0.20173636  0.31539263    -0.08000
C1120       C  0.50078362  0.13624293  0.37684476     0.05500
C1121       C  0.47942648  0.12015360  0.37426308    -0.09100
C1122       C  0.47818370  0.09727610  0.39952046     0.00500
C1123       C  0.49948204  0.08915385  0.42712960     0.00300
C1124       C  0.01858988  0.10509302  0.42920522    -0.12700
C1125       C  0.01899423  0.12842238  0.40450258     0.00800
C1126       C  0.45487145  0.08259699  0.39571521     0.40100
C1127       C  0.03986752  0.14587362  0.41066276     0.36700
C1128       C  0.95279295  0.18030785  0.36583755     0.36500
C1129       C  0.55267481  0.18436231  0.27712545     0.37200
N1130       N  0.43587737  0.07124448  0.39276559    -0.43600
N1131       N  0.05644112  0.16001500  0.41564350    -0.44000
N1132       N  0.57340726  0.18520897  0.26058941    -0.41400
N1133       N  0.93307743  0.18072455  0.38523708    -0.42800
H1134       H  0.96245333  0.21839944  0.31291959     0.13300
H1135       H  0.54251107  0.14443421  0.32690898     0.09800
H1136       H  0.46368912  0.12536873  0.35203538     0.10900
H1137       H  0.03476446  0.10003900  0.45082632     0.16700
C1138       C  0.53339812  0.34521900  0.18951879    -0.01500
C1139       C  0.50972620  0.35881612  0.17034924     0.07100
C1140       C  0.98665436  0.34554770  0.16925103    -0.07500
C1141       C  0.98581780  0.31991920  0.18818939     0.04500
C1142       C  0.50798365  0.30813260  0.21069750    -0.14700
C1143       C  0.53239031  0.31997804  0.20935844    -0.08000
C1144       C  0.51018972  0.38494656  0.14747501     0.05500
C1145       C  0.52473567  0.38441284  0.11147737    -0.09100
C1146       C  0.52360480  0.40807413  0.08709671     0.00500
C1147       C  0.00772774  0.43372110  0.10089985     0.00300
C1148       C  0.99215083  0.43341436  0.13617199    -0.12700
C1149       C  0.99329974  0.40955677  0.16007151     0.00800
C1150       C  0.53907230  0.40586691  0.05037528     0.40100
C1151       C  0.97631856  0.41037070  0.19533082     0.36700
C1152       C  0.55859937  0.35724026  0.19031753     0.36500
C1153       C  0.96048727  0.30804062  0.18769234     0.37200
N1154       N  0.55144505  0.40402189  0.02093072    -0.43600
N1155       N  0.96262760  0.41129906  0.22354031    -0.44000
N1156       N  0.94010009  0.29865666  0.18785085    -0.41400
N1157       N  0.57877631  0.36692679  0.19129242    -0.42800
H1158       H  0.55061512  0.30954017  0.22414690     0.13300
H1159       H  0.96886002  0.35536029  0.15292828     0.09800
H1160       H  0.53648141  0.36521034  0.10195885     0.10900
H1161       H  0.97816037  0.45158420  0.14455535     0.16700
C1162       C  0.50914789  0.40048725  0.36191979    -0.01500
C1163       C  0.50273661  0.37468029  0.37533542     0.07100
C1164       C  0.98970160  0.37134915  0.41022560    -0.07500
C1165       C  0.98706467  0.39324100  0.43638420     0.04500
C1166       C  0.49735327  0.41969868  0.42694593    -0.14700
C1167       C  0.50617050  0.42276486  0.38753736    -0.08000
C1168       C  0.50372015  0.35107871  0.34839073     0.05500
C1169       C  0.52484761  0.32875835  0.35266281    -0.09100
C1170       C  0.52648334  0.30609993  0.32794436     0.00500
C1171       C  0.50619951  0.30508537  0.29891363     0.00300
C1172       C  0.48489400  0.32742972  0.29491970    -0.12700
C1173       C  0.48374310  0.35046939  0.31891607     0.00800
C1174       C  0.54960846  0.28444461  0.33225055     0.40100
C1175       C  0.46161662  0.37303607  0.31342223     0.36700
C1176       C  0.51933753  0.40431777  0.32221212     0.36500
C1177       C  0.97703795  0.38829722  0.47590095     0.37200
N1178       N  0.56819066  0.26712335  0.33559701    -0.43600
N1179       N  0.44401105  0.39125244  0.30906036    -0.44000
N1180       N  0.96920742  0.38424786  0.50764370    -0.41400
N1181       N  0.52778556  0.40717583  0.29049466    -0.42800
H1182       H  0.51019267  0.44276769  0.37638067     0.13300
H1183       H  0.98323639  0.35188932  0.41956054     0.09800
H1184       H  0.54036639  0.32924253  0.37510463     0.10900
H1185       H  0.46882239  0.32672231  0.27346494     0.16700
O1186       O  0.97208903  0.44328585  0.98182146    -0.79600
O1187       O  0.55034749  0.99594537  0.54691989    -0.79600
O1188       O  0.52628352  0.50846819  0.91870820    -0.79600
O1189       O  0.48972121  0.48237019  0.58515739    -0.79600
O1190       O  0.54978884  0.99394285  0.96512382    -0.79700
O1191       O  0.00822706  0.45590599  0.53357085    -0.79600
O1192       O  0.52516625  0.51941266  0.59020413    -0.79600
O1193       O  0.50265852  0.46316151  0.94501016    -0.79700
C1194       C  0.48960099  0.44230845  0.95247174     1.10100
C1195       C  0.54817844  0.50536147  0.58067348     1.10000
C1196       C  0.54634093  0.99865569  0.92874283     1.10100
C1197       C  0.00172206  0.45760526  0.56995786     1.10000
O1198       O  0.95168848  0.47835520  0.53500910    -0.79600
O1199       O  0.52586200  0.05233004  0.95918315    -0.79700
O1200       O  0.96868552  0.00622469  0.90238369    -0.79600
O1201       O  0.98383843  0.05751152  0.55041081    -0.79600
O1202       O  0.52932128  0.05406791  0.54305361    -0.79700
O1203       O  0.95146186  0.49515091  0.96013532    -0.79600
O1204       O  0.94661328  0.02013150  0.54696867    -0.79600
O1205       O  0.98087508  0.04759808  0.94973594    -0.79700
Co1206     Co  0.98264460  0.47649292  0.99883480     1.51500
Co1207     Co  0.53717153  0.02260971  0.50511435     1.51700
Co1208     Co  0.48896208  0.00944337  0.95144722     1.51600
Co1209     Co  0.98723521  0.51941384  0.56267799     1.51500
O1210       O  0.00140700  0.50906652  0.00931564    -1.41600
C1211       C  0.93795423  0.50027404  0.54744038     1.10000
C1212       C  0.50201506  0.06292779  0.94692702     1.10100
C1213       C  0.94725614  0.00085797  0.92075695     1.10000
C1214       C  0.00611122  0.06750085  0.55298745     1.10000
C1215       C  0.50820900  0.28244475  0.73046930     0.02800
C1216       C  0.50790277  0.28043211  0.77217494     0.02800
C1217       C  0.50816028  0.25466180  0.79085578    -0.17700
C1218       C  0.50864978  0.23065530  0.76918884     0.02800
C1219       C  0.51011699  0.23231204  0.72738784     0.02800
C1220       C  0.51000467  0.25825224  0.70863868    -0.17700
H1221       H  0.51070574  0.25969867  0.67663872     0.04800
H1222       H  0.50724316  0.25336759  0.82289577     0.04800
C1223       C  0.77224611  0.98262602  0.72581771     0.02800
C1224       C  0.77422941  0.98341425  0.76753448     0.02800
C1225       C  0.75006904  0.98300829  0.79075906    -0.17700
C1226       C  0.72444684  0.98158289  0.77318133     0.02800
C1227       C  0.72291090  0.98030981  0.73171459     0.02800
C1228       C  0.74674709  0.98066705  0.70862713    -0.17700
H1229       H  0.74522036  0.98039906  0.67670070     0.04800
H1230       H  0.75113086  0.98421224  0.82260658     0.04800
C1231       C  0.61507435  0.96951072  0.62113787    -0.01500
C1232       C  0.61693339  0.98321994  0.65680784     0.07100
C1233       C  0.59879269  0.51095511  0.66383136    -0.07500
C1234       C  0.57414259  0.51504940  0.64248759     0.04500
C1235       C  0.56803944  0.99345019  0.61155598    -0.14700
C1236       C  0.59080620  0.97448492  0.59922446    -0.08000
C1237       C  0.64369148  0.98205118  0.67738862     0.05500
C1238       C  0.65696707  0.00560776  0.67609633    -0.09100
C1239       C  0.68278869  0.00531186  0.69344166     0.00500
C1240       C  0.69604389  0.98092127  0.71169566     0.00300
C1241       C  0.68340851  0.46464841  0.71647362    -0.12700
C1242       C  0.65768303  0.46560384  0.69851510     0.00800
C1243       C  0.69524883  0.03028119  0.69262280     0.40100
C1244       C  0.64198008  0.44324486  0.70620534     0.36700
C1245       C  0.63841737  0.95175470  0.60489079     0.36500
C1246       C  0.55280891  0.53660283  0.65491619     0.37200
N1247       N  0.70537293  0.05020917  0.69214150    -0.43600
N1248       N  0.62929198  0.42543879  0.71275060    -0.44000
N1249       N  0.53574243  0.55369224  0.66564272    -0.41400
N1250       N  0.65703934  0.93756442  0.59161896    -0.42800
H1251       H  0.59023131  0.96431429  0.57123747     0.13300
H1252       H  0.60134651  0.52421703  0.68823944     0.09800
H1253       H  0.64708258  0.02430275  0.66141797     0.10900
H1254       H  0.69193435  0.44627084  0.73297543     0.16700
C1255       C  0.59936476  0.50330720  0.84536823    -0.01500
C1256       C  0.61796530  0.98625880  0.85161263     0.07100
C1257       C  0.61738801  0.97099892  0.88706517    -0.07500
C1258       C  0.59399501  0.97369902  0.91156598     0.04500
C1259       C  0.57003120  0.99198875  0.90072477    -0.14700
C1260       C  0.57490577  0.50508467  0.86811868    -0.08000
C1261       C  0.64491828  0.98493499  0.83004032     0.05500
C1262       C  0.65720952  0.00902406  0.82521003    -0.09100
C1263       C  0.68380304  0.00815445  0.80880248     0.00500
C1264       C  0.69881283  0.98278007  0.79757863     0.00300
C1265       C  0.69260733  0.46073050  0.80947395    -0.12700
C1266       C  0.66663855  0.46086422  0.82747336     0.00800
C1267       C  0.69526420  0.03353960  0.80364677     0.40100
C1268       C  0.65631860  0.43489772  0.83333516     0.36700
C1269       C  0.59907690  0.51867211  0.80835228     0.36500
C1270       C  0.59592403  0.95804902  0.94837438     0.37200
N1271       N  0.70445044  0.05391907  0.79977654    -0.43600
N1272       N  0.64817199  0.41402300  0.83800749    -0.44000
N1273       N  0.59782771  0.94567865  0.97800412    -0.41400
N1274       N  0.59894897  0.53115707  0.77885791    -0.42800
H1275       H  0.55657594  0.51812869  0.85764005     0.13300
H1276       H  0.63586095  0.95772363  0.89660771     0.09800
H1277       H  0.64612488  0.02853190  0.83472448     0.10900
H1278       H  0.70444535  0.44138525  0.80082501     0.16700
C1279       C  0.89043393  0.47673897  0.62508312    -0.01500
C1280       C  0.86570864  0.49475462  0.61857172     0.07100
C1281       C  0.86306908  0.01045339  0.58892525    -0.07500
C1282       C  0.88635532  0.01333360  0.56537608     0.04500
C1283       C  0.91240277  0.49877544  0.57035392    -0.14700
C1284       C  0.91333175  0.47862554  0.60067451    -0.08000
C1285       C  0.84121498  0.49342035  0.64435256     0.05500
C1286       C  0.82998907  0.01078334  0.66864737    -0.09100
C1287       C  0.80797091  0.00940428  0.69508398     0.00500
C1288       C  0.79592723  0.98497526  0.69877458     0.00300
C1289       C  0.80646921  0.46833529  0.67386860    -0.12700
C1290       C  0.82785642  0.46977334  0.64649954     0.00800
C1291       C  0.79720880  0.03379379  0.71637545     0.40100
C1292       C  0.83552088  0.44687120  0.62070348     0.36700
C1293       C  0.89309867  0.45685589  0.65755705     0.36500
C1294       C  0.88402156  0.03404110  0.53409900     0.37200
N1295       N  0.78858407  0.05354194  0.73304003    -0.43600
N1296       N  0.84166751  0.42845393  0.60015659    -0.44000
N1297       N  0.88199947  0.05058730  0.50892078    -0.41400
N1298       N  0.89503827  0.44096561  0.68359344    -0.42800
H1299       H  0.93232417  0.46478240  0.60604609     0.13300
H1300       H  0.84388479  0.02405344  0.58379054     0.09800
H1301       H  0.83967098  0.02935055  0.66660864     0.10900
H1302       H  0.79632539  0.45007622  0.67559646     0.16700
C1303       C  0.82622032  0.01507810  0.82716220    -0.01500
C1304       C  0.84921090  0.99419754  0.82808050     0.07100
C1305       C  0.85205387  0.47226471  0.80393711    -0.07500
C1306       C  0.82770467  0.46909893  0.78421480     0.04500
C1307       C  0.80064860  0.98651298  0.78750348    -0.14700
C1308       C  0.80206706  0.01082744  0.80793031    -0.08000
C1309       C  0.87407988  0.99685262  0.85188570     0.05500
C1310       C  0.87824454  0.48811930  0.89136422    -0.09100
C1311       C  0.90139129  0.48878498  0.91505446     0.00500
C1312       C  0.92096537  0.00058099  0.89897170     0.00300
C1313       C  0.91688656  0.01543712  0.86288133    -0.12700
C1314       C  0.89352394  0.01409791  0.83980833     0.00800
C1315       C  0.90037710  0.47774087  0.95488424     0.40100
C1316       C  0.88988891  0.03063942  0.80389589     0.36700
C1317       C  0.82698397  0.04111729  0.84565801     0.36500
C1318       C  0.82725262  0.44432286  0.76233528     0.37200
N1319       N  0.89930481  0.46844383  0.98653413    -0.42100
N1320       N  0.88680438  0.04416510  0.77535921    -0.44000
N1321       N  0.82728030  0.42428376  0.74502796    -0.41400
N1322       N  0.82780444  0.06214100  0.85997502    -0.42800
H1323       H  0.78430757  0.02678770  0.80827326     0.13300
H1324       H  0.86995852  0.45656815  0.80167747     0.09800
H1325       H  0.86009511  0.48066223  0.90390455     0.10900
H1326       H  0.93198834  0.02825132  0.85261158     0.16700
C1327       C  0.98649181  0.16849186  0.68180372    -0.01500
C1328       C  0.50787750  0.16202390  0.65405102     0.07100
C1329       C  0.52960520  0.17772507  0.64993637    -0.07500
C1330       C  0.53113334  0.20008338  0.67421559     0.04500
C1331       C  0.51001776  0.20779804  0.70239662    -0.14700
C1332       C  0.98736013  0.19137394  0.70540713    -0.08000
C1333       C  0.50767241  0.13792558  0.62831401     0.05500
C1334       C  0.98456644  0.13650894  0.60203020    -0.09100
C1335       C  0.98395988  0.11433419  0.57685973     0.00500
C1336       C  0.50710631  0.09318259  0.57736313     0.00300
C1337       C  0.52939998  0.09408468  0.60277071    -0.12700
C1338       C  0.52971775  0.11600766  0.62831120     0.00800
C1339       C  0.96015816  0.11433924  0.55221009     0.40100
C1340       C  0.55241674  0.11510375  0.65531724     0.36700
C1341       C  0.96478903  0.15186859  0.68896287     0.36500
C1342       C  0.55538471  0.21369198  0.67105534     0.37200
N1343       N  0.94107071  0.11434788  0.53246439    -0.43600
N1344       N  0.57050243  0.11460437  0.67705807    -0.44000
N1345       N  0.57514675  0.22408819  0.66866829    -0.41400
N1346       N  0.94747084  0.13847327  0.69494713    -0.42800
H1347       H  0.97105717  0.19687559  0.72704670     0.13300
H1348       H  0.54572567  0.17215286  0.62807367     0.09800
H1349       H  0.96738637  0.15310411  0.60234999     0.10900
H1350       H  0.54621969  0.07712299  0.60373469     0.16700
C1351       C  0.98056713  0.17987379  0.84240514    -0.01500
C1352       C  0.50121148  0.15877537  0.84216354     0.07100
C1353       C  0.52381604  0.15870033  0.81595936    -0.07500
C1354       C  0.52680052  0.18172952  0.79183917     0.04500
C1355       C  0.50598431  0.20477502  0.79174233    -0.14700
C1356       C  0.98269546  0.20248345  0.81714060    -0.08000
C1357       C  0.50070821  0.13522731  0.87087815     0.05500
C1358       C  0.47732331  0.12165408  0.87366124    -0.09100
C1359       C  0.47631130  0.09927122  0.90001977     0.00500
C1360       C  0.49961979  0.08920073  0.92322175     0.00300
C1361       C  0.02275444  0.10027916  0.91872355    -0.12700
C1362       C  0.02351177  0.12295482  0.89309233     0.00800
C1363       C  0.45110940  0.08717217  0.90211924     0.40100
C1364       C  0.04814617  0.13605661  0.89216801     0.36700
C1365       C  0.95838941  0.18215971  0.87128288     0.36500
C1366       C  0.55232981  0.18195085  0.77005563     0.37200
N1367       N  0.43074653  0.07776086  0.90401439    -0.43600
N1368       N  0.06795397  0.14642330  0.89125931    -0.44000
N1369       N  0.57304368  0.18196779  0.75313966    -0.41400
N1370       N  0.94068271  0.18403656  0.89452681    -0.42800
H1371       H  0.96709588  0.22055172  0.81873813     0.13300
H1372       H  0.53983498  0.14097816  0.81555963     0.09800
H1373       H  0.45981012  0.12839559  0.85483029     0.10900
H1374       H  0.04089450  0.09297856  0.93604297     0.16700
C1375       C  0.52709426  0.35187326  0.69805202    -0.01500
C1376       C  0.50650099  0.36113990  0.67031206     0.07100
C1377       C  0.98436181  0.34267126  0.66299252    -0.07500
C1378       C  0.98441679  0.31753985  0.68366373     0.04500
C1379       C  0.50716032  0.30950345  0.70925443    -0.14700
C1380       C  0.52739853  0.32617489  0.71700935    -0.08000
C1381       C  0.50695247  0.38710275  0.64721255     0.05500
C1382       C  0.52351327  0.38664576  0.61306962    -0.09100
C1383       C  0.52388288  0.41039159  0.58927174     0.00500
C1384       C  0.00543310  0.43257787  0.59649935     0.00300
C1385       C  0.99125634  0.43364216  0.63316666    -0.12700
C1386       C  0.99121312  0.41007086  0.65739635     0.00800
C1387       C  0.54237453  0.40868579  0.55553263     0.40100
C1388       C  0.97665915  0.41237870  0.69486236     0.36700
C1389       C  0.54814948  0.36837270  0.70742743     0.36500
C1390       C  0.96246888  0.30151712  0.67662928     0.37200
N1391       N  0.55744622  0.40715922  0.52875720    -0.43600
N1392       N  0.96516819  0.41425095  0.72501152    -0.44000
N1393       N  0.94501501  0.28853596  0.67095313    -0.41400
N1394       N  0.56503155  0.38155638  0.71517274    -0.42800
H1395       H  0.54365027  0.31897563  0.73780387     0.13300
H1396       H  0.96828253  0.34945290  0.64177048     0.09800
H1397       H  0.53613592  0.36755153  0.60492277     0.10900
H1398       H  0.97961214  0.45287373  0.64281961     0.16700
C1399       C  0.50255530  0.39906881  0.86188340    -0.01500
C1400       C  0.49785061  0.37293135  0.87615677     0.07100
C1401       C  0.99012397  0.36857942  0.91731229    -0.07500
C1402       C  0.98766744  0.39086356  0.94291332     0.04500
C1403       C  0.49452878  0.41749934  0.92791789    -0.14700
C1404       C  0.50102095  0.42102058  0.88773385    -0.08000
C1405       C  0.49980454  0.34928912  0.84949185     0.05500
C1406       C  0.52419678  0.33052082  0.84907781    -0.09100
C1407       C  0.52752218  0.30854358  0.82314764     0.00500
C1408       C  0.50594897  0.30487056  0.79749909     0.00300
C1409       C  0.48158939  0.32383166  0.79764923    -0.12700
C1410       C  0.47843134  0.34605942  0.82328816     0.00800
C1411       C  0.55360079  0.29059965  0.82238393     0.40100
C1412       C  0.45312592  0.36520697  0.82244821     0.36700
C1413       C  0.50892066  0.40374057  0.82071296     0.36500
C1414       C  0.97879444  0.38634862  0.98316339     0.37200
N1415       N  0.57464053  0.27644109  0.82167763    -0.43600
N1416       N  0.43287809  0.38061112  0.82172867    -0.44000
N1417       N  0.97163699  0.38280382  0.01539682    -0.41400
N1418       N  0.51400509  0.40730227  0.78766460    -0.42800
H1419       H  0.50402295  0.44121818  0.87614277     0.13300
H1420       H  0.98513903  0.34879363  0.92793754     0.09800
H1421       H  0.54086326  0.33336068  0.86865297     0.10900
H1422       H  0.46495309  0.32105950  0.77801725     0.16700
O1423       O  0.97284267  0.94234682  0.47921939    -0.79600
O1424       O  0.55218767  0.49607659  0.04614546    -0.79600
O1425       O  0.52486842  0.01074145  0.41962769    -0.79600
O1426       O  0.48911928  0.98236084  0.08510564    -0.79600
O1427       O  0.55116782  0.49423438  0.46674145    -0.79700
O1428       O  0.00641907  0.95619926  0.03325826    -0.79600
O1429       O  0.52413602  0.01929601  0.08936847    -0.79600
O1430       O  0.50150752  0.96532604  0.44329917    -0.79700
C1431       C  0.48992317  0.94349875  0.45082426     1.10100
C1432       C  0.54688260  0.00477643  0.07984733     1.10000
C1433       C  0.54882395  0.49892072  0.43031300     1.10100
C1434       C  0.00007552  0.95779566  0.06961218     1.10000
O1435       O  0.94952072  0.97755984  0.03506012    -0.79600
O1436       O  0.52675225  0.55301790  0.45976247    -0.79700
O1437       O  0.97089165  0.50746633  0.40252917    -0.79600
O1438       O  0.98680743  0.55893148  0.04994372    -0.79600
O1439       O  0.53117901  0.55417590  0.04066352    -0.79700
O1440       O  0.95032019  0.99415417  0.45907385    -0.79600
O1441       O  0.94851271  0.52263580  0.04648033    -0.79600
O1442       O  0.98284289  0.54880956  0.45027237    -0.79700
Co1443     Co  0.98203755  0.97576429  0.49743069     1.51500
Co1444     Co  0.53855363  0.52204575  0.00362401     1.51700
Co1445     Co  0.49152136  0.50896662  0.45116113     1.51600
Co1446     Co  0.98455229  0.01920269  0.06253541     1.51500
O1447       O  0.99977677  0.00882508  0.50880555    -1.41600
C1448       C  0.93544140  0.99948156  0.04677621     1.10000
C1449       C  0.50286309  0.56318073  0.44698310     1.10100
C1450       C  0.94952846  0.50202260  0.42097930     1.10000
C1451       C  0.00953481  0.56820916  0.05209659     1.10000
C1452       C  0.51303394  0.78199813  0.23026489     0.02800
C1453       C  0.51253287  0.78068575  0.27190723     0.02800
C1454       C  0.51187971  0.75528909  0.29134219    -0.17700
C1455       C  0.51195444  0.73095967  0.27044804     0.02800
C1456       C  0.51399348  0.73182611  0.22858279     0.02800
C1457       C  0.51432701  0.75753553  0.20903775    -0.17700
H1458       H  0.51496465  0.75861666  0.17699833     0.04800
H1459       H  0.51068766  0.75454142  0.32339203     0.04800
C1460       C  0.77373577  0.48822956  0.22666200     0.02800
C1461       C  0.77615545  0.48715038  0.26838918     0.02800
C1462       C  0.75232589  0.48566421  0.29178983    -0.17700
C1463       C  0.72644086  0.48574228  0.27451261     0.02800
C1464       C  0.72419530  0.48727319  0.23296093     0.02800
C1465       C  0.74789346  0.48797590  0.20962013    -0.17700
H1466       H  0.74606582  0.48909933  0.17769840     0.04800
H1467       H  0.75381875  0.48509520  0.32373533     0.04800
C1468       C  0.61761790  0.47451242  0.12172547    -0.01500
C1469       C  0.61948857  0.49126864  0.15446497     0.07100
C1470       C  0.59416285  0.00556571  0.16867264    -0.07500
C1471       C  0.56989471  0.00933823  0.14641522     0.04500
C1472       C  0.57032653  0.49684658  0.11021166    -0.14700
C1473       C  0.59329399  0.47749689  0.09991299    -0.08000
C1474       C  0.64568856  0.49047736  0.17616283     0.05500
C1475       C  0.66023583  0.51311714  0.17279391    -0.09100
C1476       C  0.68567125  0.51260838  0.19144035     0.00500
C1477       C  0.69713925  0.48885382  0.21316399     0.00300
C1478       C  0.68340343  0.96386697  0.21207414    -0.12700
C1479       C  0.65769863  0.96426116  0.19438624     0.00800
C1480       C  0.69954534  0.53666994  0.18819893     0.40100
C1481       C  0.64511997  0.93938344  0.19545711     0.36700
C1482       C  0.64078586  0.45497297  0.10893264     0.36500
C1483       C  0.54577006  0.02549096  0.16325045     0.37200
N1484       N  0.71074536  0.55589434  0.18567410    -0.43600
N1485       N  0.63501274  0.91944508  0.19666356    -0.44000
N1486       N  0.52649989  0.03830569  0.17718103    -0.41400
N1487       N  0.65930859  0.43922570  0.09882955    -0.42800
H1488       H  0.59260624  0.46514123  0.07391044     0.13300
H1489       H  0.59442405  0.01531105  0.19700226     0.09800
H1490       H  0.65171191  0.53117402  0.15542621     0.10900
H1491       H  0.69397781  0.94468694  0.22453944     0.16700
C1492       C  0.59623336  0.00430185  0.34364332    -0.01500
C1493       C  0.62210349  0.48599429  0.35685879     0.07100
C1494       C  0.62182662  0.47326021  0.39426230    -0.07500
C1495       C  0.59784590  0.47576989  0.41751898     0.04500
C1496       C  0.57327030  0.49193424  0.40378601    -0.14700
C1497       C  0.57225021  0.00632195  0.36740512    -0.08000
C1498       C  0.64911205  0.48537980  0.33588100     0.05500
C1499       C  0.65963621  0.51028462  0.32907076    -0.09100
C1500       C  0.68572550  0.51059857  0.31162369     0.00500
C1501       C  0.70146486  0.48576113  0.29988805     0.00300
C1502       C  0.68899988  0.96164518  0.30589030    -0.12700
C1503       C  0.66274008  0.96207929  0.32305842     0.00800
C1504       C  0.69636574  0.53647519  0.30718715     0.40100
C1505       C  0.65144984  0.93650820  0.32708967     0.36700
C1506       C  0.59508879  0.01908085  0.30612620     0.36500
C1507       C  0.59961701  0.46185780  0.45573496     0.37200
N1508       N  0.70509954  0.55715627  0.30438344    -0.43600
N1509       N  0.64245445  0.91599082  0.33044517    -0.44000
N1510       N  0.60110568  0.45078455  0.48638824    -0.41400
N1511       N  0.59392166  0.03107657  0.27617332    -0.42800
H1512       H  0.55374841  0.01931643  0.35743591     0.13300
H1513       H  0.64076051  0.46196892  0.40593486     0.09800
H1514       H  0.64762879  0.52947177  0.33808852     0.10900
H1515       H  0.70021477  0.94234080  0.29579026     0.16700
C1516       C  0.88764516  0.97831615  0.12570208    -0.01500
C1517       C  0.86215196  0.99386360  0.11548032     0.07100
C1518       C  0.86333912  0.51276498  0.08537318    -0.07500
C1519       C  0.88676684  0.51495535  0.06171734     0.04500
C1520       C  0.90959372  0.99788177  0.06884138    -0.14700
C1521       C  0.91090393  0.98001417  0.10196948    -0.08000
C1522       C  0.83744188  0.99271906  0.14094822     0.05500
C1523       C  0.83065253  0.51695935  0.16851434    -0.09100
C1524       C  0.80909912  0.51523649  0.19568294     0.00500
C1525       C  0.79728278  0.49071114  0.19949866     0.00300
C1526       C  0.80520433  0.96674845  0.17522852    -0.12700
C1527       C  0.82598023  0.96807943  0.14678110     0.00800
C1528       C  0.79899538  0.53907772  0.21853168     0.40100
C1529       C  0.83507520  0.94400767  0.12377454     0.36700
C1530       C  0.89072684  0.96166316  0.16164116     0.36500
C1531       C  0.88402025  0.53225416  0.02645247     0.37200
N1532       N  0.79090089  0.55823232  0.23680321    -0.43600
N1533       N  0.84230281  0.92466994  0.10541390    -0.44000
N1534       N  0.88179078  0.54610950  0.99816261    -0.41400
N1535       N  0.89298275  0.94854590  0.19062181    -0.42800
H1536       H  0.93044297  0.96802873  0.11011226     0.13300
H1537       H  0.84348856  0.52405688  0.07703379     0.09800
H1538       H  0.84006465  0.53565954  0.16609284     0.10900
H1539       H  0.79640146  0.94780723  0.17966237     0.16700
C1540       C  0.82624938  0.51618190  0.33419936    -0.01500
C1541       C  0.85031500  0.49687295  0.33085386     0.07100
C1542       C  0.84848249  0.96930009  0.30782052    -0.07500
C1543       C  0.82426930  0.96665160  0.28723473     0.04500
C1544       C  0.80242459  0.49000256  0.28864853    -0.14700
C1545       C  0.80260812  0.51260368  0.31330505    -0.08000
C1546       C  0.87534022  0.49928512  0.35398939     0.05500
C1547       C  0.87723854  0.98580090  0.39020462    -0.09100
C1548       C  0.90018107  0.98749203  0.41401158     0.00500
C1549       C  0.92317518  0.50185319  0.39927190     0.00300
C1550       C  0.92177929  0.51082951  0.35934263    -0.12700
C1551       C  0.89821617  0.50962196  0.33681128     0.00800
C1552       C  0.89938763  0.97674079  0.45401186     0.40100
C1553       C  0.89790089  0.51901791  0.29603840     0.36700
C1554       C  0.82543229  0.53994434  0.35867399     0.36500
C1555       C  0.82235175  0.94091217  0.26850380     0.37200
N1556       N  0.89842721  0.96797744  0.48597888    -0.42100
N1557       N  0.89752579  0.52651704  0.26333887    -0.44000
N1558       N  0.82113089  0.92017059  0.25357202    -0.41400
N1559       N  0.82479460  0.55904512  0.37819262    -0.42800
H1560       H  0.78416911  0.52756561  0.31613915     0.13300
H1561       H  0.86514677  0.95218540  0.30920115     0.09800
H1562       H  0.85975604  0.97696898  0.40245426     0.10900
H1563       H  0.93929533  0.51855812  0.34531827     0.16700
C1564       C  0.99270083  0.66851090  0.18210131    -0.01500
C1565       C  0.51170276  0.66043196  0.15654678     0.07100
C1566       C  0.53443878  0.67497363  0.15423202    -0.07500
C1567       C  0.53599558  0.69756091  0.17823671     0.04500
C1568       C  0.51402437  0.70675348  0.20442587    -0.14700
C1569       C  0.99375634  0.69112707  0.20628090    -0.08000
C1570       C  0.51096650  0.63659667  0.12998184     0.05500
C1571       C  0.99163038  0.63807364  0.10064896    -0.09100
C1572       C  0.99014603  0.61627955  0.07495386     0.00500
C1573       C  0.50969080  0.59299590  0.07661859     0.00300
C1574       C  0.53233186  0.59340627  0.10153346    -0.12700
C1575       C  0.53285080  0.61446178  0.12860048     0.00800
C1576       C  0.96719056  0.61814452  0.04830168     0.40100
C1577       C  0.55538946  0.61206765  0.15609923     0.36700
C1578       C  0.96982376  0.65313746  0.18713017     0.36500
C1579       C  0.56103992  0.70995076  0.17679258     0.37200
N1580       N  0.94883652  0.61958599  0.02684623    -0.43600
N1581       N  0.57335462  0.61004663  0.17829067    -0.44000
N1582       N  0.58147732  0.71925514  0.17586613    -0.41400
N1583       N  0.95159993  0.64068237  0.19152796    -0.42800
H1584       H  0.97672305  0.69754546  0.22630506     0.13300
H1585       H  0.55117573  0.66854050  0.13369158     0.09800
H1586       H  0.97558689  0.65578968  0.10001265     0.10900
H1587       H  0.54922309  0.57647919  0.10120369     0.16700
C1588       C  0.98274526  0.68221055  0.34314610    -0.01500
C1589       C  0.50284268  0.66125967  0.34723584     0.07100
C1590       C  0.52660156  0.66093515  0.32328720    -0.07500
C1591       C  0.52986760  0.68303265  0.29738056     0.04500
C1592       C  0.50861118  0.70559705  0.29398699    -0.14700
C1593       C  0.98555027  0.70414765  0.31679656    -0.08000
C1594       C  0.50102666  0.63795075  0.37589706     0.05500
C1595       C  0.47976498  0.62179572  0.37246520    -0.09100
C1596       C  0.47881023  0.59826184  0.39671138     0.00500
C1597       C  0.49983114  0.59017167  0.42479486     0.00300
C1598       C  0.02125073  0.60587913  0.42895259    -0.12700
C1599       C  0.02220712  0.62942653  0.40491449     0.00800
C1600       C  0.45652974  0.58251769  0.39079290     0.40100
C1601       C  0.04350662  0.64625471  0.41174957     0.36700
C1602       C  0.95832486  0.68386317  0.36792613     0.36500
C1603       C  0.55595679  0.68293206  0.27697630     0.37200
N1604       N  0.43843990  0.57020782  0.38594374    -0.43600
N1605       N  0.06054361  0.65978239  0.41716473    -0.44000
N1606       N  0.57710305  0.68271918  0.26116453    -0.41400
N1607       N  0.93883439  0.68526326  0.38796508    -0.42800
H1608       H  0.96907033  0.72145192  0.31473146     0.13300
H1609       H  0.54306352  0.64363799  0.32574260     0.09800
H1610       H  0.46425403  0.62718191  0.34998260     0.10900
H1611       H  0.03691387  0.60057548  0.45118998     0.16700
C1612       C  0.53514163  0.84786809  0.18865222    -0.01500
C1613       C  0.51086041  0.86071646  0.17002682     0.07100
C1614       C  0.98620793  0.84572894  0.17219915    -0.07500
C1615       C  0.98740831  0.82022772  0.19208267     0.04500
C1616       C  0.51203213  0.80882014  0.20866146    -0.14700
C1617       C  0.53552083  0.82214587  0.20775415    -0.08000
C1618       C  0.51017489  0.88714956  0.14721837     0.05500
C1619       C  0.52791262  0.88820532  0.11440695    -0.09100
C1620       C  0.52702153  0.91211284  0.09062585     0.00500
C1621       C  0.00504505  0.93288399  0.09583452     0.00300
C1622       C  0.99041333  0.93291631  0.13198398    -0.12700
C1623       C  0.99174961  0.90915810  0.15600498     0.00800
C1624       C  0.54631872  0.91188733  0.05795022     0.40100
C1625       C  0.97602244  0.91047807  0.19252220     0.36700
C1626       C  0.55975646  0.86090785  0.18912287     0.36500
C1627       C  0.96253136  0.80772299  0.19646007     0.37200
N1628       N  0.56192206  0.91154093  0.03189604    -0.43600
N1629       N  0.96328520  0.91184521  0.22166200    -0.44000
N1630       N  0.94264132  0.79766958  0.20038443    -0.41400
N1631       N  0.57950773  0.87133680  0.18944171    -0.42800
H1632       H  0.55419149  0.81241329  0.22219370     0.13300
H1633       H  0.96687310  0.85538341  0.15948687     0.09800
H1634       H  0.54224595  0.87004722  0.10695196     0.10900
H1635       H  0.97725405  0.95138384  0.14125540     0.16700
C1636       C  0.50802173  0.90005270  0.36119811    -0.01500
C1637       C  0.50417233  0.87361150  0.37528679     0.07100
C1638       C  0.99748848  0.86880857  0.41442206    -0.07500
C1639       C  0.99394869  0.89082532  0.44050274     0.04500
C1640       C  0.49668918  0.91869630  0.42647551    -0.14700
C1641       C  0.50430174  0.92229576  0.38671557    -0.08000
C1642       C  0.50622114  0.85010760  0.34824160     0.05500
C1643       C  0.53051280  0.83117959  0.34730163    -0.09100
C1644       C  0.53336749  0.80915571  0.32134210     0.00500
C1645       C  0.51141622  0.80556936  0.29630088     0.00300
C1646       C  0.48723909  0.82477079  0.29690503    -0.12700
C1647       C  0.48456674  0.84703638  0.32244755     0.00800
C1648       C  0.55920548  0.79084645  0.32015907     0.40100
C1649       C  0.45934203  0.86631700  0.32229881     0.36700
C1650       C  0.51562640  0.90476724  0.32049556     0.36500
C1651       C  0.98811229  0.88509003  0.48162597     0.37200
N1652       N  0.58001861  0.77632918  0.31902148    -0.43600
N1653       N  0.43922632  0.88191435  0.32236498    -0.44000
N1654       N  0.98355029  0.88055016  0.51460649    -0.41400
N1655       N  0.52179866  0.90835329  0.28785356    -0.42800
H1656       H  0.50654593  0.94268349  0.37516815     0.13300
H1657       H  0.99502143  0.84825658  0.42513947     0.09800
H1658       H  0.54740103  0.83383132  0.36662110     0.10900
H1659       H  0.47020525  0.82203000  0.27795578     0.16700
O1660       O  0.97037320  0.94340360  0.97838749    -0.79600
O1661       O  0.55284606  0.49863461  0.54528525    -0.79600
O1662       O  0.52308352  0.01082749  0.91759261    -0.79600
O1663       O  0.48678771  0.97981660  0.58471888    -0.79600
O1664       O  0.55140423  0.49199187  0.96757354    -0.79700
O1665       O  0.00799237  0.95524318  0.53551726    -0.79600
O1666       O  0.52250023  0.01605225  0.59217532    -0.79600
O1667       O  0.49932575  0.96651896  0.94281295    -0.79700
C1668       C  0.48831534  0.94460189  0.95199913     1.10100
C1669       C  0.54540014  0.00173213  0.58260463     1.10000
C1670       C  0.54937470  0.49694661  0.93118278     1.10100
C1671       C  0.00153760  0.95694319  0.57190913     1.10000
O1672       O  0.95096298  0.97612146  0.53635620    -0.79600
O1673       O  0.52670481  0.55080627  0.96066749    -0.79700
O1674       O  0.97268624  0.50397554  0.90428623    -0.79600
O1675       O  0.98628500  0.55864482  0.54845509    -0.79600
O1676       O  0.53131137  0.55665825  0.53916782    -0.79700
O1677       O  0.94865019  0.99562447  0.95849951    -0.79600
O1678       O  0.94839377  0.52230901  0.54517721    -0.79600
O1679       O  0.98321860  0.54636911  0.95082555    -0.79700
Co1680     Co  0.98038091  0.97673151  0.99591540     1.51500
Co1681     Co  0.53876132  0.52437159  0.50268460     1.51700
Co1682     Co  0.49169579  0.50612853  0.95129276     1.51600
Co1683     Co  0.98540479  0.01818357  0.56450224     1.51500
O1684       O  0.99879359  0.00931984  0.00697991    -1.41600
C1685       C  0.93675858  0.99772156  0.54906488     1.10000
C1686       C  0.50289679  0.56047883  0.94703739     1.10100
C1687       C  0.95086720  0.49920526  0.92206120     1.10000
C1688       C  0.00868124  0.56844052  0.55059522     1.10000
C1689       C  0.50541464  0.78202152  0.73405247     0.02800
C1690       C  0.50491645  0.78023268  0.77575319     0.02800
C1691       C  0.50443645  0.75452491  0.79448241    -0.17700
C1692       C  0.50544508  0.73044972  0.77283110     0.02800
C1693       C  0.50732639  0.73197155  0.73111415     0.02800
C1694       C  0.50684068  0.75790034  0.71227156    -0.17700
H1695       H  0.50750562  0.75936141  0.68023732     0.04800
H1696       H  0.50308104  0.75323354  0.82649923     0.04800
C1697       C  0.77465546  0.48772853  0.72667874     0.02800
C1698       C  0.77733228  0.48689998  0.76831336     0.02800
C1699       C  0.75362322  0.48548186  0.79197700    -0.17700
C1700       C  0.72769670  0.48493576  0.77492293     0.02800
C1701       C  0.72529800  0.48569196  0.73334939     0.02800
C1702       C  0.74888491  0.48664647  0.70989566    -0.17700
H1703       H  0.74699699  0.48738962  0.67796704     0.04800
H1704       H  0.75525219  0.48529824  0.82390768     0.04800
C1705       C  0.61686687  0.47283063  0.62236325    -0.01500
C1706       C  0.62046323  0.49031159  0.65372281     0.07100
C1707       C  0.59379212  0.00073723  0.67069035    -0.07500
C1708       C  0.56941525  0.00588575  0.64866307     0.04500
C1709       C  0.57113479  0.49873178  0.60937537    -0.14700
C1710       C  0.59247371  0.47721114  0.60054473    -0.08000
C1711       C  0.64713669  0.48867165  0.67479680     0.05500
C1712       C  0.66212182  0.51099063  0.67116825    -0.09100
C1713       C  0.68728422  0.51052139  0.69051695     0.00500
C1714       C  0.69819728  0.48712254  0.71340749     0.00300
C1715       C  0.68302472  0.95722933  0.71237389    -0.12700
C1716       C  0.65664629  0.95786177  0.69662696     0.00800
C1717       C  0.70142233  0.53439026  0.68688488     0.40100
C1718       C  0.64275067  0.93401528  0.70245030     0.36700
C1719       C  0.63830662  0.45102829  0.61078470     0.36500
C1720       C  0.54694847  0.02502613  0.66421812     0.37200
N1721       N  0.71288617  0.55342373  0.68409195    -0.43600
N1722       N  0.63165649  0.91493753  0.70798080    -0.44000
N1723       N  0.52912739  0.04037998  0.67721645    -0.41400
N1724       N  0.65530077  0.43338409  0.60151624    -0.42800
H1725       H  0.59045639  0.46416855  0.57568790     0.13300
H1726       H  0.59517841  0.01124713  0.69823136     0.09800
H1727       H  0.65403557  0.52891159  0.65323634     0.10900
H1728       H  0.69323089  0.93834778  0.72612610     0.16700
C1729       C  0.59385634  0.00383065  0.83982338    -0.01500
C1730       C  0.62373806  0.48713179  0.85919454     0.07100
C1731       C  0.62290276  0.47271137  0.89530654    -0.07500
C1732       C  0.59873881  0.47460164  0.91819537     0.04500
C1733       C  0.57431998  0.49134599  0.90510241    -0.14700
C1734       C  0.57009390  0.00629342  0.86412407    -0.08000
C1735       C  0.65083276  0.48610306  0.83811233     0.05500
C1736       C  0.66198981  0.51069551  0.83132384    -0.09100
C1737       C  0.68775889  0.51051852  0.81265239     0.00500
C1738       C  0.70282980  0.48545243  0.80054476     0.00300
C1739       C  0.68704062  0.95858637  0.80390408    -0.12700
C1740       C  0.66009784  0.95952585  0.81886092     0.00800
C1741       C  0.69854460  0.53620525  0.80650180     0.40100
C1742       C  0.64805625  0.93430684  0.82079769     0.36700
C1743       C  0.59311475  0.02009329  0.80358679     0.36500
C1744       C  0.60020538  0.45957994  0.95555778     0.37200
N1745       N  0.70742828  0.55669982  0.80191282    -0.43600
N1746       N  0.63842412  0.91408464  0.82202229    -0.44000
N1747       N  0.60157721  0.44771129  0.98561539    -0.41400
N1748       N  0.59231325  0.03342682  0.77480985    -0.42800
H1749       H  0.55204077  0.02046269  0.85531496     0.13300
H1750       H  0.64158535  0.46055443  0.90637982     0.09800
H1751       H  0.65059707  0.53005009  0.84081458     0.10900
H1752       H  0.69848519  0.93901848  0.79527859     0.16700
C1753       C  0.88929600  0.97267152  0.62599205    -0.01500
C1754       C  0.86429707  0.99019980  0.61920365     0.07100
C1755       C  0.86461166  0.51482993  0.58805293    -0.07500
C1756       C  0.88781420  0.51703373  0.56399097     0.04500
C1757       C  0.91119428  0.99548244  0.57178770    -0.14700
C1758       C  0.91226930  0.97510936  0.60186924    -0.08000
C1759       C  0.83972448  0.98847049  0.64475849     0.05500
C1760       C  0.83194600  0.51577422  0.66847246    -0.09100
C1761       C  0.81033705  0.51440374  0.69566373     0.00500
C1762       C  0.79803048  0.49015103  0.69927767     0.00300
C1763       C  0.80489402  0.96310230  0.67361014    -0.12700
C1764       C  0.82646934  0.96473802  0.64649543     0.00800
C1765       C  0.80053703  0.53842298  0.71836224     0.40100
C1766       C  0.83417665  0.94219684  0.62008537     0.36700
C1767       C  0.89215675  0.95299159  0.65872350     0.36500
C1768       C  0.88555599  0.53737880  0.53220571     0.37200
N1769       N  0.79269547  0.55779609  0.73633351    -0.43600
N1770       N  0.84026140  0.92417886  0.59882153    -0.44000
N1771       N  0.88348488  0.55362275  0.50662251    -0.41400
N1772       N  0.89422130  0.93739686  0.68512619    -0.42800
H1773       H  0.93143711  0.96155840  0.60733004     0.13300
H1774       H  0.84561123  0.52870105  0.58303575     0.09800
H1775       H  0.84183535  0.53418339  0.66632741     0.10900
H1776       H  0.79487879  0.94473674  0.67509943     0.16700
C1777       C  0.82976632  0.51512996  0.83124459    -0.01500
C1778       C  0.85322007  0.49501013  0.82779980     0.07100
C1779       C  0.84794078  0.96980034  0.80775132    -0.07500
C1780       C  0.82413722  0.96599824  0.78698096     0.04500
C1781       C  0.80403211  0.48917760  0.78789716    -0.14700
C1782       C  0.80545716  0.51203610  0.81157088    -0.08000
C1783       C  0.87832934  0.49631277  0.85141133     0.05500
C1784       C  0.87786160  0.98223446  0.88798806    -0.09100
C1785       C  0.90065077  0.98430562  0.91186266     0.00500
C1786       C  0.92515968  0.49864265  0.89898906     0.00300
C1787       C  0.92508847  0.50660347  0.85863840    -0.12700
C1788       C  0.90211074  0.50535333  0.83489703     0.00800
C1789       C  0.90264821  0.96908579  0.94903848     0.40100
C1790       C  0.90349273  0.51340802  0.79368300     0.36700
C1791       C  0.83025059  0.53912660  0.85486700     0.36500
C1792       C  0.82425487  0.94065377  0.76621135     0.37200
N1793       N  0.90389140  0.95702549  0.97894564    -0.42100
N1794       N  0.90488231  0.51981818  0.76066047    -0.44000
N1795       N  0.82475959  0.92033634  0.74940771    -0.41400
N1796       N  0.83075495  0.55837060  0.87374676    -0.42800
H1797       H  0.78748148  0.52757202  0.81458520     0.13300
H1798       H  0.86559295  0.95369469  0.80817012     0.09800
H1799       H  0.86270783  0.96930942  0.89776064     0.10900
H1800       H  0.94315736  0.51367549  0.84528466     0.16700
C1801       C  0.98895539  0.66669065  0.68278031    -0.01500
C1802       C  0.50972205  0.66160280  0.65649618     0.07100
C1803       C  0.53086549  0.67815780  0.65412640    -0.07500
C1804       C  0.53099820  0.70034775  0.67922317     0.04500
C1805       C  0.50900471  0.70715993  0.70632248    -0.14700
C1806       C  0.98874257  0.68944290  0.70701152    -0.08000
C1807       C  0.51003950  0.63871758  0.62823190     0.05500
C1808       C  0.98694612  0.63626391  0.60287836    -0.09100
C1809       C  0.98609357  0.61452659  0.57704794     0.00500
C1810       C  0.50952928  0.59597588  0.57354899     0.00300
C1811       C  0.53312059  0.59781146  0.59591030    -0.12700
C1812       C  0.53332263  0.61837619  0.62374018     0.00800
C1813       C  0.96099273  0.61378704  0.55551737     0.40100
C1814       C  0.55693411  0.61694359  0.64918239     0.36700
C1815       C  0.96786471  0.64923220  0.68918988     0.36500
C1816       C  0.55451136  0.71509932  0.67767169     0.37200
N1817       N  0.94073520  0.61329850  0.53854309    -0.43600
N1818       N  0.57579251  0.61556574  0.66971043    -0.44000
N1819       N  0.57357987  0.72659399  0.67678382    -0.41400
N1820       N  0.95098980  0.63524100  0.69467656    -0.42800
H1821       H  0.97197254  0.69433806  0.72809372     0.13300
H1822       H  0.54739657  0.67372084  0.63254790     0.09800
H1823       H  0.96909542  0.65204720  0.60547947     0.10900
H1824       H  0.55100041  0.58202711  0.59353696     0.16700
C1825       C  0.97768681  0.67933467  0.84220148    -0.01500
C1826       C  0.50041495  0.65842861  0.84621833     0.07100
C1827       C  0.52460997  0.66058856  0.82410080    -0.07500
C1828       C  0.52650761  0.68343668  0.79900627     0.04500
C1829       C  0.50373988  0.70440098  0.79528461    -0.14700
C1830       C  0.97955618  0.70173576  0.81630401    -0.08000
C1831       C  0.49983152  0.63458461  0.87430154     0.05500
C1832       C  0.47970548  0.61723917  0.87013627    -0.09100
C1833       C  0.47899249  0.59410926  0.89510737     0.00500
C1834       C  0.49961822  0.58713021  0.92409854     0.00300
C1835       C  0.02002829  0.60438690  0.92781388    -0.12700
C1836       C  0.01974417  0.62809086  0.90361829     0.00800
C1837       C  0.45695994  0.57801498  0.88948675     0.40100
C1838       C  0.03994900  0.64620956  0.91016956     0.36700
C1839       C  0.95318964  0.67963260  0.86657237     0.36500
C1840       C  0.55237634  0.68557662  0.77898021     0.37200
N1841       N  0.43886006  0.56568831  0.88485439    -0.43600
N1842       N  0.05593565  0.66096173  0.91529654    -0.44000
N1843       N  0.57316617  0.68727720  0.76304936    -0.41400
N1844       N  0.93358423  0.67988273  0.88617180    -0.42800
H1845       H  0.96249867  0.71848376  0.81454489     0.13300
H1846       H  0.54226611  0.64460344  0.82707863     0.09800
H1847       H  0.46457628  0.62165075  0.84691325     0.10900
H1848       H  0.03607904  0.59967078  0.94962479     0.16700
C1849       C  0.52851963  0.84769489  0.69366062    -0.01500
C1850       C  0.50589662  0.85887081  0.67020446     0.07100
C1851       C  0.98613829  0.84336829  0.66598195    -0.07500
C1852       C  0.98543563  0.81829041  0.68636317     0.04500
C1853       C  0.50499144  0.80872765  0.71243898    -0.14700
C1854       C  0.52794456  0.82273316  0.71442974    -0.08000
C1855       C  0.50598379  0.88488230  0.64689603     0.05500
C1856       C  0.52440902  0.88560200  0.61482547    -0.09100
C1857       C  0.52403351  0.90940388  0.59083411     0.00500
C1858       C  0.00658567  0.93226061  0.59869549     0.00300
C1859       C  0.99011253  0.93159369  0.63310919    -0.12700
C1860       C  0.99107835  0.90768545  0.65673079     0.00800
C1861       C  0.54417558  0.90920828  0.55922401     0.40100
C1862       C  0.97353920  0.90808456  0.69148392     0.36700
C1863       C  0.55218348  0.86184925  0.69758120     0.36500
C1864       C  0.96150839  0.80443474  0.68262152     0.37200
N1865       N  0.56049067  0.90904553  0.53410364    -0.43600
N1866       N  0.95957115  0.90841517  0.71940427    -0.44000
N1867       N  0.94246646  0.79313834  0.67969653    -0.41400
N1868       N  0.57110706  0.87326434  0.70083718    -0.42800
H1869       H  0.54547180  0.81407268  0.73225930     0.13300
H1870       H  0.96891346  0.85191410  0.64753478     0.09800
H1871       H  0.53893212  0.86737471  0.60829907     0.10900
H1872       H  0.97572544  0.94956860  0.64114978     0.16700
C1873       C  0.50036267  0.90126335  0.86117912    -0.01500
C1874       C  0.49778512  0.87472507  0.87640394     0.07100
C1875       C  0.99399036  0.86844042  0.91650337    -0.07500
C1876       C  0.99046917  0.89097925  0.94164103     0.04500
C1877       C  0.49376000  0.91988019  0.92731471    -0.14700
C1878       C  0.49814801  0.92356627  0.88655035    -0.08000
C1879       C  0.49921884  0.85073966  0.85023345     0.05500
C1880       C  0.52149004  0.82948805  0.85400807    -0.09100
C1881       C  0.52403921  0.80675833  0.82941713     0.00500
C1882       C  0.50379713  0.80486477  0.80069245     0.00300
C1883       C  0.48137940  0.82605342  0.79715002    -0.12700
C1884       C  0.47897876  0.84891825  0.82151337     0.00800
C1885       C  0.54789307  0.78591969  0.83373276     0.40100
C1886       C  0.45526741  0.86991356  0.81710476     0.36700
C1887       C  0.50582972  0.90590989  0.81970209     0.36500
C1888       C  0.98318578  0.88620311  0.98251348     0.37200
N1889       N  0.56701627  0.76923975  0.83728792    -0.43600
N1890       N  0.43631613  0.88678228  0.81341270    -0.44000
N1891       N  0.97737798  0.88235790  0.01525149    -0.41400
N1892       N  0.51029342  0.90937169  0.78642949    -0.42800
H1893       H  0.49926076  0.94402936  0.87428479     0.13300
H1894       H  0.99053222  0.84829268  0.92774171     0.09800
H1895       H  0.53713878  0.83087716  0.87593351     0.10900
H1896       H  0.46546335  0.82449290  0.77575119     0.16700
loop_ 
_geom_bond_atom_site_label_1 
_geom_bond_atom_site_label_2 
_geom_bond_distance 
_geom_bond_site_symmetry_2 
_ccdc_geom_bond_type 
O1          Co21   1.889       .  S
O1          C957   1.265       .  A
O2          Co22   1.959   1_565  S
O2          C484   1.261   1_565  A
O3         Co497   2.016   1_455  S
O3          C485   1.263       .  A
O4         Co972   2.026       .  S
O4          C960   1.278   1_655  A
O5         Co259   1.966   1_565  S
O5           C11   1.254       .  A
O6         Co258   1.969   1_554  S
O6           C12   1.267       .  A
O7         Co972   2.032   1_455  S
O7           C10   1.274       .  A
O8         Co497   2.121   1_455  S
O8            C9   1.299   1_455  A
C9          O949   1.263       .  A
C9          C218   1.490       .  S
C10         O476   1.261       .  A
C10         C524   1.492       .  S
C11         O477   1.264   1_565  A
C11          C74   1.494       .  S
C12         O952   1.277       .  A
C12         C199   1.491       .  S
O13        Co258   2.000   1_554  S
O13          C26   1.263       .  A
O14        Co259   2.029       .  S
O14          C27   1.281       .  A
O15        Co971   1.899       .  S
O15          C28   1.267       .  A
O16        Co498   1.967       .  S
O16          C29   1.262       .  A
O17         Co22   2.028       .  S
O17         C977   1.275       .  A
O18         Co21   2.110       .  S
O18         C502   1.298       .  A
O19        Co498   1.986       .  S
O19         C500   1.261       .  A
O20        Co971   1.971       .  S
O20         C975   1.271       .  A
Co21        O243   1.973       .  S
Co21        O250   2.006       .  S
Co21         O25   1.995       .  S
Co22        O242   1.969   1_544  S
Co22        O251   2.020   1_554  S
Co22       O1684   2.009   1_455  S
Co23        O477   2.022   1_655  S
Co23        O482   2.116   1_645  S
Co23        O963   1.894       .  S
Co23        O968   1.971       .  S
Co23       O1447   2.014       .  S
Co24        O952   2.024       .  S
Co24        O955   2.033       .  S
Co24        O490   1.967       .  S
Co24        O493   1.980       .  S
Co24        O262   2.043       .  S
O25       Co1681   2.011       .  S
O25       Co1445   2.018       .  S
O25        Co261   2.040       .  S
C26         O493   1.258       .  A
C26          C98   1.473       .  S
C27         O968   1.270   1_455  A
C27         C175   1.495   1_455  S
C28         O492   1.300   1_545  A
C28         C127   1.503       .  S
C29         O965   1.276       .  A
C29        C1099   1.482       .  S
C30         C194   1.486       .  S
C30          C31   1.413       .  A
C30          C35   1.408       .  A
C31         C223   1.493       .  S
C31          C32   1.402       .  A
C32          C33   1.403       .  A
C32          H37   1.085       .  S
C33         C170   1.488       .  S
C33          C34   1.417       .  A
C34         C146   1.493       .  S
C34          C35   1.410       .  A
C35          H36   1.084       .  S
C38         C103   1.477       .  S
C38          C39   1.417       .  A
C38          C43   1.403       .  A
C39         C122   1.497       .  S
C39          C40   1.408       .  A
C40          C41   1.407       .  A
C40          H45   1.085       .  S
C41          C79   1.481       .  S
C41          C42   1.414       .  A
C42          C55   1.493       .  S
C42          C43   1.399       .  A
C43          H44   1.086       .  S
C46          C47   1.407       .  A
C46          C51   1.398       .  A
C46          C60   1.444       .  S
C47          C52   1.488       .  S
C47         C522   1.403   1_565  A
C48          C49   1.403       .  A
C48         C521   1.401       .  A
C48          H67   1.085       .  S
C49         C524   1.418       .  A
C49          C61   1.443       .  S
C50         C484   1.497   1_565  S
C50          C51   1.410       .  A
C50         C523   1.419   1_565  A
C51          H66   1.085       .  S
C52          C53   1.404   1_565  A
C52         C531   1.409       .  A
C53          C54   1.404       .  A
C53          H68   1.086       .  S
C54          C55   1.414   1_545  A
C54          C58   1.444       .  S
C55         C530   1.404       .  A
C56          C57   1.398       .  A
C56         C529   1.403       .  A
C56          H69   1.084       .  S
C57         C526   1.409       .  A
C57          C59   1.443       .  S
C58          N62   1.157       .  T
C59          N63   1.157       .  T
C60          N65   1.157       .  T
C61          N64   1.157       .  T
C70          C75   1.405       .  A
C70         C545   1.413       .  A
C70          C84   1.444       .  S
C71          C76   1.491       .  S
C71          C72   1.399       .  A
C71         C544   1.413   1_565  A
C72          C73   1.397       .  A
C72          H91   1.084       .  S
C73          C74   1.420       .  A
C73          C85   1.445       .  S
C74         C549   1.409   1_565  A
C75         C548   1.407       .  A
C75          H90   1.083       .  S
C76          C77   1.406   1_565  A
C76         C555   1.414       .  A
C77          C78   1.402       .  A
C77          H92   1.084       .  S
C78          C79   1.408   1_545  A
C78          C82   1.444       .  S
C79         C554   1.400       .  A
C80          C81   1.399       .  A
C80         C553   1.400       .  A
C80          H93   1.085       .  S
C81         C550   1.413       .  A
C81          C83   1.444       .  S
C82          N86   1.157       .  T
C83          N87   1.157       .  T
C84          N89   1.157       .  T
C85          N88   1.157       .  T
C94          C95   1.410       .  A
C94          C99   1.396       .  A
C94         C108   1.445       .  S
C95         C100   1.482       .  S
C95         C570   1.405       .  A
C96          C97   1.403       .  A
C96         C569   1.405   1_545  A
C96         H115   1.084       .  S
C97         C572   1.409   1_545  A
C97         C109   1.443       .  S
C98          C99   1.403       .  A
C98         C571   1.410       .  A
C99         H114   1.085       .  S
C100        C105   1.411       .  A
C100        C575   1.404       .  A
C101        C102   1.399       .  A
C101        C574   1.402   1_545  A
C101        H116   1.084       .  S
C102        C103   1.410   1_545  A
C102        C106   1.443       .  S
C103        C578   1.402       .  A
C104        C105   1.396       .  A
C104        C577   1.403       .  A
C104        H117   1.085       .  S
C105        C107   1.445       .  S
C106        N110   1.157       .  T
C107        N111   1.157       .  T
C108        N113   1.157       .  T
C109        N112   1.157       .  T
C118        C119   1.409   1_545  A
C118        C123   1.402       .  A
C118        C132   1.442       .  S
C119        C124   1.493       .  S
C119        C594   1.405       .  A
C120        C121   1.403       .  A
C120        C593   1.402       .  A
C120        H139   1.084       .  S
C121        C596   1.415       .  A
C121        C133   1.442       .  S
C122        C123   1.404   1_565  A
C122        C595   1.415       .  A
C123        H138   1.084       .  S
C124        C129   1.409   1_565  A
C124        C599   1.400       .  A
C125        C126   1.402       .  A
C125        C598   1.400       .  A
C125        H140   1.085       .  S
C126        C601   1.420       .  A
C126        C130   1.443       .  S
C127        C128   1.412       .  A
C127        C600   1.420   1_545  A
C128        C129   1.407       .  A
C128        H141   1.084       .  S
C129        C131   1.444       .  S
C130        N134   1.157       .  T
C131        N135   1.157       .  T
C132        N137   1.157       .  T
C133        N136   1.157       .  T
C142        C147   1.404       .  A
C142       C1091   1.410       .  A
C142        C156   1.443       .  S
C143        C148   1.491       .  S
C143        C144   1.403       .  A
C143       C1090   1.411   1_455  A
C144        C145   1.402       .  A
C144        H163   1.085       .  S
C145        C146   1.414       .  A
C145        C157   1.444       .  S
C146       C1095   1.405   1_455  A
C147       C1094   1.406       .  A
C147        H162   1.083       .  S
C148        C153   1.410       .  A
C148       C1097   1.406   1_455  A
C149        C150   1.405       .  A
C149       C1096   1.405       .  A
C149        H164   1.085       .  S
C150       C1099   1.412       .  A
C150        C154   1.443       .  S
C151        C977   1.483       .  S
C151        C152   1.406       .  A
C151       C1098   1.412   1_455  A
C152        C153   1.401       .  A
C152        H165   1.085       .  S
C153        C155   1.444       .  S
C154        N158   1.157       .  T
C155        N159   1.157       .  T
C156        N161   1.157       .  T
C157        N160   1.157       .  T
C166        C171   1.398       .  A
C166       C1115   1.412       .  A
C166        C180   1.444       .  S
C167        C172   1.494       .  S
C167        C168   1.406   1_655  A
C167       C1114   1.412       .  A
C168        C169   1.402       .  A
C168        H187   1.085       .  S
C169        C170   1.411       .  A
C169        C181   1.442       .  S
C170       C1119   1.404   1_455  A
C171       C1118   1.403       .  A
C171        H186   1.085       .  S
C172        C173   1.403       .  A
C172       C1125   1.412   1_655  A
C173        C174   1.403       .  A
C173        H188   1.085       .  S
C174        C175   1.419       .  A
C174        C178   1.443       .  S
C175       C1124   1.409   1_655  A
C176        C177   1.403       .  A
C176       C1123   1.409       .  A
C176        H189   1.085       .  S
C177       C1120   1.412       .  A
C177        C179   1.445       .  S
C178        N182   1.157       .  T
C179        N183   1.157       .  T
C180        N185   1.157       .  T
C181        N184   1.157       .  T
C190        C191   1.411       .  A
C190        C195   1.402       .  A
C190        C204   1.443       .  S
C191        C196   1.488       .  S
C191       C1140   1.404   1_455  A
C192        C193   1.400       .  A
C192       C1139   1.404       .  A
C192        H211   1.085       .  S
C193       C1142   1.410       .  A
C193        C205   1.444       .  S
C194        C195   1.403       .  A
C194       C1141   1.411   1_455  A
C195        H210   1.085       .  S
C196        C197   1.403       .  A
C196       C1149   1.409   1_455  A
C197        C198   1.404       .  A
C197        H212   1.085       .  S
C198       C1147   1.417       .  A
C198        C202   1.444       .  S
C199        C200   1.409       .  A
C199       C1146   1.419       .  A
C200        C201   1.400       .  A
C200        H213   1.085       .  S
C201       C1144   1.407       .  A
C201        C203   1.444       .  S
C202        N206   1.157       .  T
C203        N207   1.157       .  T
C204        N209   1.157       .  T
C205        N208   1.157       .  T
C214        C215   1.408       .  A
C214        C219   1.404       .  A
C214        C228   1.444       .  S
C215        C220   1.483       .  S
C215       C1164   1.399   1_455  A
C216        C217   1.403       .  A
C216       C1163   1.403       .  A
C216        H235   1.085       .  S
C217       C1166   1.416       .  A
C217        C229   1.445       .  S
C218        C219   1.409   1_655  A
C218       C1165   1.419       .  A
C219        H234   1.085       .  S
C220        C221   1.399       .  A
C220        C225   1.410   1_455  A
C221        C222   1.400       .  A
C221        H236   1.086       .  S
C222        C223   1.415       .  A
C222        C226   1.444       .  S
C223        C224   1.406   1_455  A
C224        C225   1.402       .  A
C224        H237   1.085       .  S
C225        C227   1.444       .  S
C226        N230   1.157       .  T
C227        N231   1.157       .  T
C228        N233   1.157       .  T
C229        N232   1.157       .  T
O238       Co258   1.885       .  S
O238       C1194   1.263       .  A
O239       Co259   1.960   1_565  S
O239        C721   1.261   1_565  A
O240       Co734   2.019   1_455  S
O240        C722   1.263       .  A
O241      Co1209   2.023       .  S
O241       C1197   1.278   1_655  A
O242        C248   1.256       .  A
O243        C249   1.269       .  A
O244      Co1209   2.035   1_455  S
O244        C247   1.275       .  A
O245       Co734   2.120   1_455  S
O245        C246   1.300   1_455  A
C246       O1186   1.263       .  A
C246        C455   1.488       .  S
C247        O713   1.260       .  A
C247        C761   1.492       .  S
C248        O714   1.265   1_565  A
C248        C311   1.494       .  S
C249       O1189   1.277       .  A
C249        C436   1.490       .  S
O250        C263   1.265       .  A
O251        C264   1.280       .  A
O252      Co1208   1.892       .  S
O252        C265   1.268       .  A
O253       Co735   1.964       .  S
O253        C266   1.261       .  A
O254       Co259   2.021       .  S
O254       C1214   1.274       .  A
O255       Co258   2.117       .  S
O255        C739   1.300       .  A
O256       Co735   1.989       .  S
O256        C737   1.262   1_545  A
O257      Co1208   1.970       .  S
O257       C1212   1.270       .  A
Co258       O262   1.998   1_556  S
Co259      O1447   2.014   1_455  S
Co260       O714   2.019   1_655  S
Co260       O719   2.117   1_545  S
Co260      O1200   1.898       .  S
Co260      O1205   1.966       .  S
Co260      O1684   2.014   1_556  S
Co261      O1189   2.019       .  S
Co261      O1192   2.039       .  S
Co261       O727   1.967       .  S
Co261       O730   1.986       .  S
O262      Co1444   2.014       .  S
O262      Co1682   2.018   1_554  S
C263        O730   1.261       .  A
C263        C335   1.478       .  S
C264       O1205   1.269   1_455  A
C264        C412   1.491   1_455  S
C265        O729   1.300   1_545  A
C265        C364   1.497       .  S
C266       O1202   1.274       .  A
C266       C1336   1.483       .  S
C267        C431   1.487       .  S
C267        C268   1.414       .  A
C267        C272   1.405       .  A
C268        C460   1.488       .  S
C268        C269   1.399       .  A
C269        C270   1.404       .  A
C269        H274   1.087       .  S
C270        C407   1.488       .  S
C270        C271   1.418       .  A
C271        C383   1.490       .  S
C271        C272   1.405       .  A
C272        H273   1.086       .  S
C275        C340   1.486       .  S
C275        C276   1.422       .  A
C275        C280   1.405       .  A
C276        C359   1.497       .  S
C276        C277   1.413       .  A
C277        C278   1.407       .  A
C277        H282   1.084       .  S
C278        C316   1.487       .  S
C278        C279   1.410       .  A
C279        C292   1.487       .  S
C279        C280   1.398       .  A
C280        H281   1.085       .  S
C283        C284   1.409       .  A
C283        C288   1.400       .  A
C283        C297   1.444       .  S
C284        C289   1.487       .  S
C284        C759   1.402   1_565  A
C285        C758   1.402       .  A
C285        C286   1.402       .  A
C285        H304   1.085       .  S
C286        C761   1.416       .  A
C286        C298   1.443       .  S
C287        C721   1.494   1_565  S
C287        C760   1.418   1_565  A
C287        C288   1.410       .  A
C288        H303   1.085       .  S
C289        C290   1.404   1_565  A
C289        C768   1.410       .  A
C290        C291   1.402       .  A
C290        H305   1.086       .  S
C291        C292   1.411   1_545  A
C291        C295   1.444       .  S
C292        C767   1.403       .  A
C293        C766   1.405       .  A
C293        C294   1.402       .  A
C293        H306   1.083       .  S
C294        C763   1.411       .  A
C294        C296   1.443       .  S
C295        N299   1.157       .  T
C296        N300   1.157       .  T
C297        N302   1.157       .  T
C298        N301   1.157       .  T
C307        C782   1.411       .  A
C307        C312   1.405       .  A
C307        C321   1.444       .  S
C308        C313   1.493       .  S
C308        C781   1.414   1_565  A
C308        C309   1.400       .  A
C309        C310   1.397       .  A
C309        H328   1.085       .  S
C310        C311   1.420       .  A
C310        C322   1.445       .  S
C311        C786   1.408   1_565  A
C312        C785   1.408       .  A
C312        H327   1.083       .  S
C313        C314   1.405   1_565  A
C313        C792   1.415       .  A
C314        C315   1.402       .  A
C314        H329   1.084       .  S
C315        C316   1.410   1_545  A
C315        C319   1.443       .  S
C316        C791   1.402       .  A
C317        C790   1.402       .  A
C317        C318   1.401       .  A
C317        H330   1.084       .  S
C318        C787   1.412       .  A
C318        C320   1.444       .  S
C319        N323   1.157       .  T
C320        N324   1.157       .  T
C321        N326   1.157       .  T
C322        N325   1.157       .  T
C331        C332   1.409       .  A
C331        C336   1.399       .  A
C331        C345   1.446       .  S
C332        C337   1.483       .  S
C332        C807   1.404       .  A
C333        C806   1.406   1_545  A
C333        C334   1.405       .  A
C333        H352   1.084       .  S
C334        C809   1.410   1_545  A
C334        C346   1.443       .  S
C335        C808   1.411       .  A
C335        C336   1.405       .  A
C336        H351   1.085       .  S
C337        C812   1.403       .  A
C337        C342   1.410       .  A
C338        C811   1.401   1_545  A
C338        C339   1.400       .  A
C338        H353   1.085       .  S
C339        C340   1.412   1_545  A
C339        C343   1.442       .  S
C340        C815   1.406       .  A
C341        C814   1.404       .  A
C341        C342   1.397       .  A
C341        H354   1.085       .  S
C342        C344   1.444       .  S
C343        N347   1.157       .  T
C344        N348   1.157       .  T
C345        N350   1.157       .  T
C346        N349   1.157       .  T
C355        C356   1.408   1_545  A
C355        C360   1.401       .  A
C355        C369   1.443       .  S
C356        C361   1.492       .  S
C356        C831   1.406       .  A
C357        C830   1.404       .  A
C357        C358   1.406       .  A
C357        H376   1.084       .  S
C358        C833   1.417       .  A
C358        C370   1.442       .  S
C359        C832   1.416       .  A
C359        C360   1.405   1_565  A
C360        H375   1.084       .  S
C361        C836   1.402       .  A
C361        C366   1.409   1_565  A
C362        C835   1.402       .  A
C362        C363   1.402       .  A
C362        H377   1.085       .  S
C363        C838   1.418       .  A
C363        C367   1.442       .  S
C364        C837   1.420   1_545  A
C364        C365   1.409       .  A
C365        C366   1.404       .  A
C365        H378   1.085       .  S
C366        C368   1.443       .  S
C367        N371   1.157       .  T
C368        N372   1.157       .  T
C369        N374   1.157       .  T
C370        N373   1.157       .  T
C379       C1328   1.411       .  A
C379        C384   1.401       .  A
C379        C393   1.443       .  S
C380        C385   1.489       .  S
C380       C1327   1.412   1_455  A
C380        C381   1.403       .  A
C381        C382   1.399       .  A
C381        H400   1.086       .  S
C382        C383   1.415       .  A
C382        C394   1.444       .  S
C383       C1332   1.404   1_455  A
C384       C1331   1.405       .  A
C384        H399   1.084       .  S
C385       C1334   1.405   1_455  A
C385        C390   1.411       .  A
C386       C1333   1.405       .  A
C386        C387   1.403       .  A
C386        H401   1.083       .  S
C387       C1336   1.413       .  A
C387        C391   1.444       .  S
C388       C1214   1.483       .  S
C388       C1335   1.413   1_455  A
C388        C389   1.406       .  A
C389        C390   1.399       .  A
C389        H402   1.084       .  S
C390        C392   1.445       .  S
C391        N395   1.157       .  T
C392        N396   1.157       .  T
C393        N398   1.157       .  T
C394        N397   1.157       .  T
C403       C1352   1.413       .  A
C403        C408   1.398       .  A
C403        C417   1.444       .  S
C404        C409   1.492       .  S
C404       C1351   1.412   1_455  A
C404        C405   1.407       .  A
C405        C406   1.401       .  A
C405        H424   1.085       .  S
C406        C407   1.411       .  A
C406        C418   1.443       .  S
C407       C1356   1.405   1_455  A
C408       C1355   1.404       .  A
C408        H423   1.086       .  S
C409        C410   1.405   1_455  A
C409       C1362   1.412       .  A
C410        C411   1.402       .  A
C410        H425   1.085       .  S
C411        C412   1.418       .  A
C411        C415   1.444       .  S
C412       C1361   1.408   1_655  A
C413       C1360   1.408       .  A
C413        C414   1.397       .  A
C413        H426   1.084       .  S
C414       C1357   1.412       .  A
C414        C416   1.445       .  S
C415        N419   1.157       .  T
C416        N420   1.157       .  T
C417        N422   1.157       .  T
C418        N421   1.157       .  T
C427        C428   1.408       .  A
C427        C432   1.399       .  A
C427        C441   1.442       .  S
C428        C433   1.481       .  S
C428       C1377   1.402   1_455  A
C429       C1376   1.402       .  A
C429        C430   1.402       .  A
C429        H448   1.085       .  S
C430       C1379   1.415       .  A
C430        C442   1.445       .  S
C431       C1378   1.415   1_455  A
C431        C432   1.403       .  A
C432        H447   1.085       .  S
C433        C434   1.400       .  A
C433       C1386   1.406   1_455  A
C434        C435   1.402       .  A
C434        H449   1.086       .  S
C435       C1384   1.418       .  A
C435        C439   1.443       .  S
C436       C1383   1.417       .  A
C436        C437   1.411       .  A
C437        C438   1.400       .  A
C437        H450   1.085       .  S
C438       C1381   1.406       .  A
C438        C440   1.444       .  S
C439        N443   1.157       .  T
C440        N444   1.157       .  T
C441        N446   1.157       .  T
C442        N445   1.158       .  T
C451        C452   1.408   1_455  A
C451        C456   1.401       .  A
C451        C465   1.444       .  S
C452        C457   1.484   1_655  S
C452       C1401   1.401       .  A
C453       C1400   1.402       .  A
C453        C454   1.402       .  A
C453        H472   1.085       .  S
C454       C1403   1.417       .  A
C454        C466   1.445       .  S
C455       C1402   1.419       .  A
C455        C456   1.406   1_655  A
C456        H471   1.085       .  S
C457        C458   1.401       .  A
C457        C462   1.411   1_455  A
C458        C459   1.401       .  A
C458        H473   1.085       .  S
C459        C460   1.414       .  A
C459        C463   1.444       .  S
C460        C461   1.404   1_455  A
C461        C462   1.402       .  A
C461        H474   1.085       .  S
C462        C464   1.443       .  S
C463        N467   1.157       .  T
C464        N468   1.157       .  T
C465        N470   1.157       .  T
C466        N469   1.158   1_556  T
O475       Co495   1.882       .  S
O475       C1431   1.264       .  A
O476       Co496   1.961       .  S
O478      Co1446   2.019   1_565  S
O478       C1434   1.277   1_655  A
O479       Co733   1.963       .  S
O479        C485   1.254       .  A
O480       Co732   1.972   1_554  S
O480        C486   1.269       .  A
O481      Co1446   2.042   1_455  S
O481        C484   1.275       .  A
O482        C483   1.299   1_455  A
C483       O1423   1.264       .  A
C483        C692   1.482       .  S
C485        C548   1.486       .  S
C486       O1426   1.277       .  A
C486        C673   1.486       .  S
O487       Co732   1.993   1_554  S
O487        C500   1.262   1_565  A
O488       Co733   2.027       .  S
O488        C501   1.280       .  A
O489      Co1445   1.892       .  S
O489        C502   1.267       .  A
O490        C503   1.262       .  A
O491       Co496   2.021       .  S
O491       C1451   1.273       .  A
O492       Co495   2.121       .  S
O494      Co1445   1.972       .  S
O494       C1449   1.270       .  A
Co495       O717   1.978       .  S
Co495       O724   1.996       .  S
Co495       O499   1.994   1_565  S
Co496       O716   1.962   1_554  S
Co496       O725   2.038   1_554  S
Co496      O1210   2.011       .  S
Co497      O1437   1.892       .  S
Co497      O1442   1.973       .  S
Co497       O973   2.016   1_655  S
Co498      O1426   2.019   1_545  S
Co498      O1429   2.036       .  S
Co498       O736   2.037       .  S
O499      Co1207   2.015       .  S
O499       Co971   2.014       .  S
O499       Co735   2.044       .  S
C500        C572   1.472   1_545  S
C501       O1442   1.270   1_455  A
C501        C649   1.494       .  S
C502        C601   1.494       .  S
C503       O1439   1.274       .  A
C503       C1573   1.489       .  S
C504        C668   1.478       .  S
C504        C505   1.408       .  A
C504        C509   1.405       .  A
C505        C697   1.484       .  S
C505        C506   1.398       .  A
C506        C507   1.403       .  A
C506        H511   1.085       .  S
C507        C644   1.486       .  S
C507        C508   1.419       .  A
C508        C620   1.492       .  S
C508        C509   1.408       .  A
C509        H510   1.085       .  S
C512        C577   1.481       .  S
C512        C513   1.420       .  A
C512        C517   1.402       .  A
C513        C596   1.495       .  S
C513        C514   1.408       .  A
C514        C515   1.402       .  A
C514        H519   1.084       .  S
C515        C553   1.479       .  S
C515        C516   1.412       .  A
C516        C529   1.489       .  S
C516        C517   1.398       .  A
C517        H518   1.085       .  S
C520        C521   1.410       .  A
C520        C525   1.399       .  A
C520        C534   1.445       .  S
C521        C526   1.486       .  S
C522        C523   1.408       .  A
C522        H541   1.084       .  S
C523        C535   1.443       .  S
C524        C525   1.409       .  A
C525        H540   1.086       .  S
C526        C527   1.404       .  A
C527        C528   1.403       .  A
C527        H542   1.086       .  S
C528        C529   1.412       .  A
C528        C532   1.445       .  S
C530        C531   1.400       .  A
C530        H543   1.084       .  S
C531        C533   1.443       .  S
C532        N536   1.157       .  T
C533        N537   1.157       .  T
C534        N539   1.157       .  T
C535        N538   1.157       .  T
C544        C549   1.407       .  A
C544        C558   1.444       .  S
C545        C550   1.488       .  S
C545        C546   1.400       .  A
C546        C547   1.395       .  A
C546        H565   1.084       .  S
C547        C548   1.417       .  A
C547        C559   1.445       .  S
C549        H564   1.083       .  S
C550        C551   1.406       .  A
C551        C552   1.400       .  A
C551        H566   1.084       .  S
C552        C553   1.407       .  A
C552        C556   1.444       .  S
C554        C555   1.399       .  A
C554        H567   1.085       .  S
C555        C557   1.444       .  S
C556        N560   1.157       .  T
C557        N561   1.157       .  T
C558        N563   1.157       .  T
C559        N562   1.157       .  T
C568        C569   1.409       .  A
C568        C573   1.395       .  A
C568        C582   1.445       .  S
C569        C574   1.480       .  S
C570        C571   1.403       .  A
C570        H589   1.085       .  S
C571        C583   1.444       .  S
C572        C573   1.403       .  A
C573        H588   1.085       .  S
C574        C579   1.411       .  A
C575        C576   1.401       .  A
C575        H590   1.085       .  S
C576        C577   1.410       .  A
C576        C580   1.443       .  S
C578        C579   1.397       .  A
C578        H591   1.085       .  S
C579        C581   1.444       .  S
C580        N584   1.157       .  T
C581        N585   1.157       .  T
C582        N587   1.157       .  T
C583        N586   1.157       .  T
C592        C593   1.408       .  A
C592        C597   1.401       .  A
C592        C606   1.444       .  S
C593        C598   1.485       .  S
C594        C595   1.408       .  A
C594        H613   1.084       .  S
C595        C607   1.443       .  S
C596        C597   1.408       .  A
C597        H612   1.084       .  S
C598        C603   1.407       .  A
C599        C600   1.405       .  A
C599        H614   1.086       .  S
C600        C604   1.443       .  S
C601        C602   1.410       .  A
C602        C603   1.402       .  A
C602        H615   1.085       .  S
C603        C605   1.444       .  S
C604        N608   1.157       .  T
C605        N609   1.157       .  T
C606        N611   1.157       .  T
C607        N610   1.157       .  T
C616       C1565   1.414       .  A
C616        C621   1.404       .  A
C616        C630   1.443       .  S
C617        C622   1.495       .  S
C617       C1564   1.413   1_455  A
C617        C618   1.405       .  A
C618        C619   1.403       .  A
C618        H637   1.084       .  S
C619        C620   1.414       .  A
C619        C631   1.444       .  S
C620       C1569   1.404   1_455  A
C621       C1568   1.405       .  A
C621        H636   1.084       .  S
C622       C1571   1.408   1_455  A
C622        C627   1.411       .  A
C623       C1570   1.408       .  A
C623        C624   1.406       .  A
C623        H638   1.084       .  S
C624       C1573   1.413       .  A
C624        C628   1.444       .  S
C625       C1451   1.487       .  S
C625       C1572   1.412   1_455  A
C625        C626   1.406       .  A
C626        C627   1.401       .  A
C626        H639   1.085       .  S
C627        C629   1.445       .  S
C628        N632   1.157       .  T
C629        N633   1.157       .  T
C630        N635   1.157       .  T
C631        N634   1.157       .  T
C640       C1589   1.411       .  A
C640        C645   1.401       .  A
C640        C654   1.444       .  S
C641        C646   1.491       .  S
C641       C1588   1.411   1_455  A
C641        C642   1.406       .  A
C642        C643   1.401       .  A
C642        H661   1.086       .  S
C643        C644   1.410       .  A
C643        C655   1.442       .  S
C644       C1593   1.406   1_455  A
C645       C1592   1.406       .  A
C645        H660   1.086       .  S
C646        C647   1.403   1_455  A
C646       C1599   1.410       .  A
C647        C648   1.403       .  A
C647        H662   1.084       .  S
C648        C649   1.418   1_655  A
C648        C652   1.442       .  S
C649       C1598   1.408       .  A
C650       C1597   1.408       .  A
C650        C651   1.401       .  A
C650        H663   1.084       .  S
C651       C1594   1.410       .  A
C651        C653   1.444       .  S
C652        N656   1.157       .  T
C653        N657   1.157       .  T
C654        N659   1.157       .  T
C655        N658   1.157       .  T
C664        C665   1.412       .  A
C664        C669   1.400       .  A
C664        C678   1.444       .  S
C665        C670   1.482       .  S
C665       C1614   1.403   1_455  A
C666       C1613   1.405       .  A
C666        C667   1.402       .  A
C666        H685   1.086       .  S
C667       C1616   1.411       .  A
C667        C679   1.444       .  S
C668       C1615   1.410   1_455  A
C668        C669   1.401       .  A
C669        H684   1.086       .  S
C670        C671   1.402       .  A
C670       C1623   1.409   1_455  A
C671        C672   1.399       .  A
C671        H686   1.085       .  S
C672       C1621   1.417       .  A
C672        C676   1.444       .  S
C673       C1620   1.414       .  A
C673        C674   1.408       .  A
C674        C675   1.399       .  A
C674        H687   1.084       .  S
C675       C1618   1.410       .  A
C675        C677   1.444       .  S
C676        N680   1.157       .  T
C677        N681   1.157       .  T
C678        N683   1.157       .  T
C679        N682   1.157       .  T
C688        C689   1.407       .  A
C688        C693   1.399       .  A
C688        C702   1.444       .  S
C689        C694   1.481       .  S
C689       C1638   1.402   1_455  A
C690       C1637   1.402       .  A
C690        C691   1.403       .  A
C690        H709   1.085       .  S
C691       C1640   1.417       .  A
C691        C703   1.446       .  S
C692       C1639   1.417       .  A
C692        C693   1.405   1_655  A
C693        H708   1.084       .  S
C694        C695   1.400       .  A
C694        C699   1.411   1_455  A
C695        C696   1.400       .  A
C695        H710   1.086       .  S
C696        C697   1.411       .  A
C696        C700   1.443       .  S
C697        C698   1.403   1_455  A
C698        C699   1.401       .  A
C698        H711   1.085       .  S
C699        C701   1.444       .  S
C700        N704   1.157       .  T
C701        N705   1.157       .  T
C702        N707   1.157       .  T
C703        N706   1.158       .  T
O712       Co732   1.881       .  S
O712       C1668   1.263       .  A
O713       Co733   1.959       .  S
O715      Co1683   2.015   1_565  S
O715       C1671   1.276   1_655  A
O716        C722   1.251       .  A
O717        C723   1.269       .  A
O718      Co1683   2.039   1_455  S
O718        C721   1.275       .  A
O719        C720   1.297       .  A
C720       O1660   1.262       .  A
C720        C929   1.483       .  S
C722        C785   1.492       .  S
C723       O1663   1.275       .  A
C723        C910   1.486       .  S
O724        C737   1.263       .  A
O725        C738   1.283       .  A
O726      Co1682   1.892       .  S
O726        C739   1.266       .  A
O727        C740   1.262       .  A
O728       Co733   2.025       .  S
O728       C1688   1.275       .  A
O729       Co732   2.122       .  S
O731      Co1682   1.967       .  S
O731       C1686   1.269       .  A
Co732       O736   1.987   1_566  S
Co733       O973   2.011       .  S
Co734      O1674   1.888       .  S
Co734      O1679   1.968       .  S
Co734      O1210   2.018   1_656  S
Co735      O1663   2.012   1_545  S
Co735      O1666   2.046       .  S
O736       Co970   2.013       .  S
O736      Co1208   2.008   1_554  S
C737        C809   1.476       .  S
C738       O1679   1.269   1_455  A
C738        C886   1.497       .  S
C739        C838   1.498       .  S
C740       O1676   1.274       .  A
C740       C1810   1.486       .  S
C741        C905   1.481       .  S
C741        C742   1.411       .  A
C741        C746   1.402       .  A
C742        C934   1.484       .  S
C742        C743   1.399       .  A
C743        C744   1.401       .  A
C743        H748   1.086       .  S
C744        C881   1.484       .  S
C744        C745   1.417       .  A
C745        C857   1.489       .  S
C745        C746   1.405       .  A
C746        H747   1.086       .  S
C749        C814   1.484       .  S
C749        C750   1.421       .  A
C749        C754   1.402       .  A
C750        C833   1.500       .  S
C750        C751   1.413       .  A
C751        C752   1.408       .  A
C751        H756   1.085       .  S
C752        C790   1.484       .  S
C752        C753   1.412       .  A
C753        C766   1.491       .  S
C753        C754   1.398       .  A
C754        H755   1.085       .  S
C757        C758   1.411       .  A
C757        C762   1.401       .  A
C757        C771   1.444       .  S
C758        C763   1.488       .  S
C759        C760   1.404       .  A
C759        H778   1.084       .  S
C760        C772   1.443       .  S
C761        C762   1.410       .  A
C762        H777   1.085       .  S
C763        C764   1.404       .  A
C764        C765   1.401       .  A
C764        H779   1.086       .  S
C765        C766   1.412       .  A
C765        C769   1.444       .  S
C767        C768   1.399       .  A
C767        H780   1.085       .  S
C768        C770   1.443       .  S
C769        N773   1.157       .  T
C770        N774   1.157       .  T
C771        N776   1.157       .  T
C772        N775   1.157       .  T
C781        C786   1.406       .  A
C781        C795   1.443       .  S
C782        C787   1.487       .  S
C782        C783   1.398       .  A
C783        C784   1.397       .  A
C783        H802   1.084       .  S
C784        C785   1.422       .  A
C784        C796   1.445       .  S
C786        H801   1.084       .  S
C787        C788   1.404       .  A
C788        C789   1.401       .  A
C788        H803   1.084       .  S
C789        C790   1.409       .  A
C789        C793   1.443       .  S
C791        C792   1.402       .  A
C791        H804   1.085       .  S
C792        C794   1.444       .  S
C793        N797   1.157       .  T
C794        N798   1.157       .  T
C795        N800   1.157       .  T
C796        N799   1.157       .  T
C805        C806   1.408       .  A
C805        C810   1.396       .  A
C805        C819   1.445       .  S
C806        C811   1.483       .  S
C807        C808   1.405       .  A
C807        H826   1.084       .  S
C808        C820   1.443       .  S
C809        C810   1.403       .  A
C810        H825   1.084       .  S
C811        C816   1.410       .  A
C812        C813   1.402       .  A
C812        H827   1.085       .  S
C813        C814   1.412       .  A
C813        C817   1.443       .  S
C815        C816   1.399       .  A
C815        H828   1.085       .  S
C816        C818   1.445       .  S
C817        N821   1.157       .  T
C818        N822   1.157       .  T
C819        N824   1.157       .  T
C820        N823   1.157       .  T
C829        C830   1.411       .  A
C829        C834   1.402       .  A
C829        C843   1.444       .  S
C830        C835   1.493       .  S
C831        C832   1.409       .  A
C831        H850   1.084       .  S
C832        C844   1.443       .  S
C833        C834   1.407       .  A
C834        H849   1.084       .  S
C835        C840   1.410       .  A
C836        C837   1.406       .  A
C836        H851   1.085       .  S
C837        C841   1.444       .  S
C838        C839   1.412       .  A
C839        C840   1.404       .  A
C839        H852   1.084       .  S
C840        C842   1.444       .  S
C841        N845   1.157       .  T
C842        N846   1.157       .  T
C843        N848   1.157       .  T
C844        N847   1.157       .  T
C853       C1802   1.414       .  A
C853        C858   1.401       .  A
C853        C867   1.444       .  S
C854        C859   1.493       .  S
C854       C1801   1.415   1_455  A
C854        C855   1.404       .  A
C855        C856   1.398       .  A
C855        H874   1.085       .  S
C856        C857   1.414       .  A
C856        C868   1.445       .  S
C857       C1806   1.403   1_455  A
C858       C1805   1.404       .  A
C858        H873   1.084       .  S
C859       C1808   1.405   1_455  A
C859        C864   1.413       .  A
C860       C1807   1.406       .  A
C860        C861   1.403       .  A
C860        H875   1.086       .  S
C861       C1810   1.414       .  A
C861        C865   1.444       .  S
C862       C1688   1.487       .  S
C862       C1809   1.415   1_455  A
C862        C863   1.406       .  A
C863        C864   1.400       .  A
C863        H876   1.086       .  S
C864        C866   1.445       .  S
C865        N869   1.157       .  T
C866        N870   1.157       .  T
C867        N872   1.157       .  T
C868        N871   1.157       .  T
C877       C1826   1.413       .  A
C877        C882   1.399       .  A
C877        C891   1.444       .  S
C878        C883   1.492   1_455  S
C878       C1825   1.412   1_455  A
C878        C879   1.407       .  A
C879        C880   1.401       .  A
C879        H898   1.085       .  S
C880        C881   1.409       .  A
C880        C892   1.443       .  S
C881       C1830   1.404   1_455  A
C882       C1829   1.403       .  A
C882        H897   1.085       .  S
C883        C884   1.402       .  A
C883       C1836   1.411   1_655  A
C884        C885   1.403       .  A
C884        H899   1.084       .  S
C885        C886   1.420   1_655  A
C885        C889   1.443       .  S
C886       C1835   1.409       .  A
C887       C1834   1.407       .  A
C887        C888   1.402       .  A
C887        H900   1.084       .  S
C888       C1831   1.411       .  A
C888        C890   1.444       .  S
C889        N893   1.157       .  T
C890        N894   1.157       .  T
C891        N896   1.157       .  T
C892        N895   1.157       .  T
C901        C902   1.410       .  A
C901        C906   1.400       .  A
C901        C915   1.443       .  S
C902        C907   1.482       .  S
C902       C1851   1.403   1_455  A
C903       C1850   1.404       .  A
C903        C904   1.400       .  A
C903        H922   1.085       .  S
C904       C1853   1.411       .  A
C904        C916   1.444       .  S
C905       C1852   1.411   1_455  A
C905        C906   1.402       .  A
C906        H921   1.086       .  S
C907        C908   1.403       .  A
C907       C1860   1.407   1_455  A
C908        C909   1.402       .  A
C908        H923   1.085       .  S
C909       C1858   1.415       .  A
C909        C913   1.443       .  S
C910       C1857   1.414       .  A
C910        C911   1.409       .  A
C911        C912   1.397       .  A
C911        H924   1.084       .  S
C912       C1855   1.407       .  A
C912        C914   1.445       .  S
C913        N917   1.157       .  T
C914        N918   1.157       .  T
C915        N920   1.157       .  T
C916        N919   1.157       .  T
C925        C926   1.407       .  A
C925        C930   1.399       .  A
C925        C939   1.444       .  S
C926        C931   1.481       .  S
C926       C1875   1.402   1_455  A
C927       C1874   1.403       .  A
C927        C928   1.402       .  A
C927        H946   1.085       .  S
C928       C1877   1.416       .  A
C928        C940   1.445       .  S
C929       C1876   1.418       .  A
C929        C930   1.405   1_655  A
C930        H945   1.085       .  S
C931        C932   1.400       .  A
C931        C936   1.411   1_455  A
C932        C933   1.400       .  A
C932        H947   1.086       .  S
C933        C934   1.413       .  A
C933        C937   1.444       .  S
C934        C935   1.403   1_455  A
C935        C936   1.400       .  A
C935        H948   1.086       .  S
C936        C938   1.444       .  S
C937        N941   1.157       .  T
C938        N942   1.157       .  T
C939        N944   1.157       .  T
C940        N943   1.158   1_556  T
O949       Co969   1.882       .  S
O950       Co970   1.956   1_565  S
O950       C1432   1.261   1_565  A
O951      Co1445   2.020       .  S
O951       C1433   1.264       .  A
O953      Co1207   1.968   1_565  S
O953        C959   1.255       .  A
O954      Co1206   1.973   1_454  S
O954        C960   1.268       .  A
O955        C958   1.274       .  A
O956      Co1445   2.115       .  S
O956        C957   1.297       .  A
C957       C1166   1.488       .  S
C958       O1424   1.260       .  A
C958       C1472   1.490       .  S
C959       O1425   1.264   1_565  A
C959       C1022   1.492       .  S
C960       C1147   1.492       .  S
O961      Co1206   1.994   1_554  S
O961        C974   1.262       .  A
O962      Co1207   2.028       .  S
O962        C975   1.281       .  A
O963        C976   1.267   1_545  A
O964      Co1446   1.971       .  S
O964        C977   1.264   1_655  A
O965       Co970   2.031       .  S
O966       Co969   2.113       .  S
O966       C1450   1.298       .  A
O967      Co1446   1.990       .  S
O967       C1448   1.262   1_545  A
Co969      O1191   1.976   1_655  S
Co969      O1198   1.993       .  S
Co969       O973   1.992   1_655  S
Co970      O1190   1.970   1_544  S
Co970      O1199   2.017   1_554  S
Co971      O1425   2.017       .  S
Co971      O1430   2.120   1_545  S
Co972      O1438   1.975       .  S
Co972      O1441   1.984       .  S
Co972      O1210   2.042   1_655  S
O973      Co1209   2.039   1_455  S
C974       O1441   1.260       .  A
C974       C1046   1.469       .  S
C975       C1123   1.495       .  S
C976       O1440   1.301       .  A
C976       C1075   1.503       .  S
C978       C1142   1.479       .  S
C978        C979   1.412       .  A
C978        C983   1.407       .  A
C979       C1171   1.495       .  S
C979        C980   1.400       .  A
C980        C981   1.404       .  A
C980        H985   1.085       .  S
C981       C1118   1.485       .  S
C981        C982   1.417       .  A
C982       C1094   1.494       .  S
C982        C983   1.408       .  A
C983        H984   1.084       .  S
C986       C1051   1.476       .  S
C986        C987   1.417       .  A
C986        C991   1.400       .  A
C987       C1070   1.493       .  S
C987        C988   1.411       .  A
C988        C989   1.407       .  A
C988        H993   1.085       .  S
C989       C1027   1.483       .  S
C989        C990   1.410       .  A
C990       C1003   1.483       .  S
C990        C991   1.395       .  A
C991        H992   1.086       .  S
C994        C995   1.408       .  A
C994        C999   1.397       .  A
C994       C1008   1.445       .  S
C995       C1000   1.485       .  S
C995       C1470   1.402   1_565  A
C996       C1469   1.400       .  A
C996        C997   1.402       .  A
C996       H1015   1.084       .  S
C997       C1472   1.417       .  A
C997       C1009   1.443       .  S
C998       C1432   1.493   1_565  S
C998       C1471   1.418   1_565  A
C998        C999   1.410       .  A
C999       H1014   1.085       .  S
C1000      C1001   1.404   1_565  A
C1000      C1479   1.411       .  A
C1001      C1002   1.400       .  A
C1001      H1016   1.086       .  S
C1002      C1003   1.410   1_545  A
C1002      C1006   1.444       .  S
C1003      C1478   1.402       .  A
C1004      C1477   1.402       .  A
C1004      C1005   1.397       .  A
C1004      H1017   1.084       .  S
C1005      C1474   1.409       .  A
C1005      C1007   1.443       .  S
C1006      N1010   1.157       .  T
C1007      N1011   1.157       .  T
C1008      N1013   1.157       .  T
C1009      N1012   1.157       .  T
C1018      C1493   1.412       .  A
C1018      C1023   1.406       .  A
C1018      C1032   1.443       .  S
C1019      C1024   1.489       .  S
C1019      C1492   1.413   1_565  A
C1019      C1020   1.399       .  A
C1020      C1021   1.397       .  A
C1020      H1039   1.084       .  S
C1021      C1022   1.419       .  A
C1021      C1033   1.444       .  S
C1022      C1497   1.409   1_565  A
C1023      C1496   1.408       .  A
C1023      H1038   1.083       .  S
C1024      C1025   1.405   1_565  A
C1024      C1503   1.414       .  A
C1025      C1026   1.402       .  A
C1025      H1040   1.085       .  S
C1026      C1027   1.409   1_545  A
C1026      C1030   1.443       .  S
C1027      C1502   1.402       .  A
C1028      C1501   1.402       .  A
C1028      C1029   1.401       .  A
C1028      H1041   1.084       .  S
C1029      C1498   1.413       .  A
C1029      C1031   1.444       .  S
C1030      N1034   1.157       .  T
C1031      N1035   1.157       .  T
C1032      N1037   1.157       .  T
C1033      N1036   1.157       .  T
C1042      C1043   1.408       .  A
C1042      C1047   1.394       .  A
C1042      C1056   1.445       .  S
C1043      C1048   1.478       .  S
C1043      C1518   1.405       .  A
C1044      C1517   1.406   1_545  A
C1044      C1045   1.405       .  A
C1044      H1063   1.084       .  S
C1045      C1520   1.409   1_545  A
C1045      C1057   1.443       .  S
C1046      C1519   1.409       .  A
C1046      C1047   1.401       .  A
C1047      H1062   1.085       .  S
C1048      C1523   1.401       .  A
C1048      C1053   1.410       .  A
C1049      C1522   1.402   1_545  A
C1049      C1050   1.400       .  A
C1049      H1064   1.085       .  S
C1050      C1051   1.410   1_545  A
C1050      C1054   1.443       .  S
C1051      C1526   1.401       .  A
C1052      C1525   1.404       .  A
C1052      C1053   1.398       .  A
C1052      H1065   1.085       .  S
C1053      C1055   1.445       .  S
C1054      N1058   1.157       .  T
C1055      N1059   1.157       .  T
C1056      N1061   1.157       .  T
C1057      N1060   1.157   1_554  T
C1066      C1067   1.409   1_545  A
C1066      C1071   1.402       .  A
C1066      C1080   1.443       .  S
C1067      C1072   1.492       .  S
C1067      C1542   1.405       .  A
C1068      C1541   1.403       .  A
C1068      C1069   1.404       .  A
C1068      H1087   1.084       .  S
C1069      C1544   1.415       .  A
C1069      C1081   1.443       .  S
C1070      C1543   1.415       .  A
C1070      C1071   1.404   1_565  A
C1071      H1086   1.084       .  S
C1072      C1547   1.401       .  A
C1072      C1077   1.408   1_565  A
C1073      C1546   1.400       .  A
C1073      C1074   1.403       .  A
C1073      H1088   1.085       .  S
C1074      C1549   1.421       .  A
C1074      C1078   1.443       .  S
C1075      C1548   1.420       .  A
C1075      C1076   1.413   1_565  A
C1076      C1077   1.406       .  A
C1076      H1089   1.084       .  S
C1077      C1079   1.444       .  S
C1078      N1082   1.157       .  T
C1079      N1083   1.157       .  T
C1080      N1085   1.157       .  T
C1081      N1084   1.157       .  T
C1090      C1095   1.403       .  A
C1090      C1104   1.443       .  S
C1091      C1096   1.488       .  S
C1091      C1092   1.402       .  A
C1092      C1093   1.401       .  A
C1092      H1111   1.085       .  S
C1093      C1094   1.415       .  A
C1093      C1105   1.444       .  S
C1095      H1110   1.084       .  S
C1096      C1101   1.410       .  A
C1097      C1098   1.406       .  A
C1097      H1112   1.085       .  S
C1098      C1102   1.443       .  S
C1099      C1100   1.405       .  A
C1100      C1101   1.400       .  A
C1100      H1113   1.086       .  S
C1101      C1103   1.444       .  S
C1102      N1106   1.157       .  T
C1103      N1107   1.157       .  T
C1104      N1109   1.157       .  T
C1105      N1108   1.157       .  T
C1114      C1119   1.400       .  A
C1114      C1128   1.444       .  S
C1115      C1120   1.492       .  S
C1115      C1116   1.407       .  A
C1116      C1117   1.403       .  A
C1116      H1135   1.085       .  S
C1117      C1118   1.411       .  A
C1117      C1129   1.443       .  S
C1119      H1134   1.086       .  S
C1120      C1121   1.402       .  A
C1121      C1122   1.401       .  A
C1121      H1136   1.085       .  S
C1122      C1123   1.418       .  A
C1122      C1126   1.443       .  S
C1124      C1125   1.402       .  A
C1124      H1137   1.085       .  S
C1125      C1127   1.445       .  S
C1126      N1130   1.157       .  T
C1127      N1131   1.157       .  T
C1128      N1133   1.157       .  T
C1129      N1132   1.157       .  T
C1138      C1139   1.410       .  A
C1138      C1143   1.400       .  A
C1138      C1152   1.443       .  S
C1139      C1144   1.483       .  S
C1140      C1141   1.402       .  A
C1140      H1159   1.085       .  S
C1141      C1153   1.444       .  S
C1142      C1143   1.401       .  A
C1143      H1158   1.086       .  S
C1144      C1145   1.401       .  A
C1145      C1146   1.402       .  A
C1145      H1160   1.085       .  S
C1146      C1150   1.444       .  S
C1147      C1148   1.408   1_455  A
C1148      C1149   1.400       .  A
C1148      H1161   1.085       .  S
C1149      C1151   1.442       .  S
C1150      N1154   1.157       .  T
C1151      N1155   1.157       .  T
C1152      N1157   1.157       .  T
C1153      N1156   1.157       .  T
C1162      C1163   1.410       .  A
C1162      C1167   1.403       .  A
C1162      C1176   1.444       .  S
C1163      C1168   1.488       .  S
C1164      C1165   1.400       .  A
C1164      H1183   1.086       .  S
C1165      C1177   1.445       .  S
C1166      C1167   1.407       .  A
C1167      H1182   1.085       .  S
C1168      C1169   1.400       .  A
C1168      C1173   1.412       .  A
C1169      C1170   1.401       .  A
C1169      H1184   1.086       .  S
C1170      C1171   1.415       .  A
C1170      C1174   1.444       .  S
C1171      C1172   1.406       .  A
C1172      C1173   1.403       .  A
C1172      H1185   1.084       .  S
C1173      C1175   1.444       .  S
C1174      N1178   1.157       .  T
C1175      N1179   1.157       .  T
C1176      N1181   1.157       .  T
C1177      N1180   1.158       .  T
O1186     Co1206   1.885       .  S
O1187     Co1207   1.955   1_565  S
O1187      C1669   1.260   1_565  A
O1188     Co1682   2.022       .  S
O1188      C1670   1.263       .  A
O1190      C1196   1.257       .  A
O1191      C1197   1.270       .  A
O1192      C1195   1.275       .  A
O1193     Co1682   2.115       .  S
O1193      C1194   1.299       .  A
C1194      C1403   1.481       .  S
C1195      O1661   1.260       .  A
C1195      C1709   1.492       .  S
C1196      O1662   1.266   1_565  A
C1196      C1259   1.492       .  S
C1197      C1384   1.494       .  S
O1198      C1211   1.262       .  A
O1199      C1212   1.279       .  A
O1200      C1213   1.268       .  A
O1201     Co1683   1.966       .  S
O1201      C1214   1.263   1_655  A
O1202     Co1207   2.024       .  S
O1203     Co1206   2.118       .  S
O1203      C1687   1.300       .  A
O1204     Co1683   1.987       .  S
O1204      C1685   1.262   1_545  A
Co1206     O1210   1.996   1_656  S
Co1208     O1662   2.020       .  S
Co1208     O1667   2.121   1_545  S
Co1209     O1675   1.966       .  S
Co1209     O1678   1.985       .  S
C1211      O1678   1.260       .  A
C1211      C1283   1.472       .  S
C1212      C1360   1.492       .  S
C1213      O1677   1.298   1_545  A
C1213      C1312   1.495       .  S
C1215      C1379   1.487       .  S
C1215      C1216   1.413       .  A
C1215      C1220   1.406       .  A
C1216      C1408   1.483       .  S
C1216      C1217   1.397       .  A
C1217      C1218   1.401       .  A
C1217      H1222   1.086       .  S
C1218      C1355   1.485       .  S
C1218      C1219   1.417       .  A
C1219      C1331   1.489       .  S
C1219      C1220   1.406       .  A
C1220      H1221   1.084       .  S
C1223      C1288   1.482       .  S
C1223      C1224   1.419       .  A
C1223      C1228   1.402       .  A
C1224      C1307   1.497       .  S
C1224      C1225   1.413       .  A
C1225      C1226   1.408       .  A
C1225      H1230   1.084       .  S
C1226      C1264   1.487       .  S
C1226      C1227   1.411       .  A
C1227      C1240   1.485       .  S
C1227      C1228   1.397       .  A
C1228      H1229   1.085       .  S
C1231      C1232   1.408       .  A
C1231      C1236   1.399       .  A
C1231      C1245   1.445       .  S
C1232      C1237   1.486       .  S
C1232      C1707   1.403   1_565  A
C1233      C1706   1.403       .  A
C1233      C1234   1.403       .  A
C1233      H1252   1.085       .  S
C1234      C1709   1.416       .  A
C1234      C1246   1.442       .  S
C1235      C1669   1.496   1_565  S
C1235      C1708   1.418   1_565  A
C1235      C1236   1.411       .  A
C1236      H1251   1.085       .  S
C1237      C1238   1.404   1_565  A
C1237      C1716   1.411       .  A
C1238      C1239   1.400       .  A
C1238      H1253   1.086       .  S
C1239      C1240   1.409   1_545  A
C1239      C1243   1.444       .  S
C1240      C1715   1.403       .  A
C1241      C1714   1.404       .  A
C1241      C1242   1.401       .  A
C1241      H1254   1.083       .  S
C1242      C1711   1.411       .  A
C1242      C1244   1.443       .  S
C1243      N1247   1.157       .  T
C1244      N1248   1.157       .  T
C1245      N1250   1.157       .  T
C1246      N1249   1.157       .  T
C1255      C1730   1.414       .  A
C1255      C1260   1.407       .  A
C1255      C1269   1.445       .  S
C1256      C1261   1.492       .  S
C1256      C1729   1.414   1_565  A
C1256      C1257   1.400       .  A
C1257      C1258   1.397       .  A
C1257      H1276   1.084       .  S
C1258      C1259   1.418       .  A
C1258      C1270   1.444       .  S
C1259      C1734   1.408   1_565  A
C1260      C1733   1.408       .  A
C1260      H1275   1.084       .  S
C1261      C1262   1.406   1_565  A
C1261      C1740   1.414       .  A
C1262      C1263   1.403       .  A
C1262      H1277   1.084       .  S
C1263      C1264   1.410   1_545  A
C1263      C1267   1.443       .  S
C1264      C1739   1.402       .  A
C1265      C1738   1.401       .  A
C1265      C1266   1.401       .  A
C1265      H1278   1.083       .  S
C1266      C1735   1.415       .  A
C1266      C1268   1.444       .  S
C1267      N1271   1.157       .  T
C1268      N1272   1.157       .  T
C1269      N1274   1.158       .  T
C1270      N1273   1.157       .  T
C1279      C1280   1.409       .  A
C1279      C1284   1.395       .  A
C1279      C1293   1.446       .  S
C1280      C1285   1.480       .  S
C1280      C1755   1.405       .  A
C1281      C1754   1.405   1_545  A
C1281      C1282   1.403       .  A
C1281      H1300   1.085       .  S
C1282      C1757   1.409   1_545  A
C1282      C1294   1.443       .  S
C1283      C1756   1.409       .  A
C1283      C1284   1.403       .  A
C1284      H1299   1.085       .  S
C1285      C1760   1.403       .  A
C1285      C1290   1.411       .  A
C1286      C1759   1.402   1_545  A
C1286      C1287   1.399       .  A
C1286      H1301   1.086       .  S
C1287      C1288   1.411   1_545  A
C1287      C1291   1.443       .  S
C1288      C1763   1.404       .  A
C1289      C1762   1.402       .  A
C1289      C1290   1.396       .  A
C1289      H1302   1.084       .  S
C1290      C1292   1.444       .  S
C1291      N1295   1.157       .  T
C1292      N1296   1.157       .  T
C1293      N1298   1.157       .  T
C1294      N1297   1.157       .  T
C1303      C1304   1.409   1_545  A
C1303      C1308   1.403       .  A
C1303      C1317   1.443       .  S
C1304      C1309   1.493       .  S
C1304      C1779   1.406       .  A
C1305      C1778   1.403       .  A
C1305      C1306   1.405       .  A
C1305      H1324   1.084       .  S
C1306      C1781   1.415       .  A
C1306      C1318   1.443       .  S
C1307      C1780   1.416       .  A
C1307      C1308   1.405   1_565  A
C1308      H1323   1.084       .  S
C1309      C1784   1.402       .  A
C1309      C1314   1.411   1_565  A
C1310      C1783   1.401       .  A
C1310      C1311   1.403       .  A
C1310      H1325   1.085       .  S
C1311      C1786   1.418       .  A
C1311      C1315   1.443       .  S
C1312      C1785   1.419   1_545  A
C1312      C1313   1.408       .  A
C1313      C1314   1.405       .  A
C1313      H1326   1.085       .  S
C1314      C1316   1.443       .  S
C1315      N1319   1.157       .  T
C1316      N1320   1.157       .  T
C1317      N1322   1.157       .  T
C1318      N1321   1.157       .  T
C1327      C1332   1.401       .  A
C1327      C1341   1.443       .  S
C1328      C1333   1.488       .  S
C1328      C1329   1.403       .  A
C1329      C1330   1.399       .  A
C1329      H1348   1.085       .  S
C1330      C1331   1.414       .  A
C1330      C1342   1.444       .  S
C1332      H1347   1.085       .  S
C1333      C1338   1.410       .  A
C1334      C1335   1.403       .  A
C1334      H1349   1.084       .  S
C1335      C1339   1.444       .  S
C1336      C1337   1.406       .  A
C1337      C1338   1.399       .  A
C1337      H1350   1.084       .  S
C1338      C1340   1.445       .  S
C1339      N1343   1.157       .  T
C1340      N1344   1.157       .  T
C1341      N1346   1.157       .  T
C1342      N1345   1.157       .  T
C1351      C1356   1.398       .  A
C1351      C1365   1.444       .  S
C1352      C1357   1.493       .  S
C1352      C1353   1.407       .  A
C1353      C1354   1.400       .  A
C1353      H1372   1.084       .  S
C1354      C1355   1.409       .  A
C1354      C1366   1.443       .  S
C1356      H1371   1.086       .  S
C1357      C1358   1.405       .  A
C1358      C1359   1.403       .  A
C1358      H1373   1.084       .  S
C1359      C1360   1.417       .  A
C1359      C1363   1.444       .  S
C1361      C1362   1.397       .  A
C1361      H1374   1.084       .  S
C1362      C1364   1.445       .  S
C1363      N1367   1.157       .  T
C1364      N1368   1.157       .  T
C1365      N1370   1.157       .  T
C1366      N1369   1.157       .  T
C1375      C1376   1.407       .  A
C1375      C1380   1.398       .  A
C1375      C1389   1.442       .  S
C1376      C1381   1.480       .  S
C1377      C1378   1.401       .  A
C1377      H1396   1.085       .  S
C1378      C1390   1.445       .  S
C1379      C1380   1.404       .  A
C1380      H1395   1.085       .  S
C1381      C1382   1.401       .  A
C1382      C1383   1.401       .  A
C1382      H1397   1.085       .  S
C1383      C1387   1.443       .  S
C1384      C1385   1.412   1_455  A
C1385      C1386   1.400       .  A
C1385      H1398   1.085       .  S
C1386      C1388   1.445       .  S
C1387      N1391   1.157       .  T
C1388      N1392   1.157       .  T
C1389      N1394   1.157       .  T
C1390      N1393   1.158       .  T
C1399      C1400   1.407       .  A
C1399      C1404   1.398       .  A
C1399      C1413   1.443       .  S
C1400      C1405   1.480       .  S
C1401      C1402   1.403       .  A
C1401      H1420   1.085       .  S
C1402      C1414   1.445       .  S
C1403      C1404   1.404       .  A
C1404      H1419   1.085       .  S
C1405      C1406   1.400       .  A
C1405      C1410   1.411       .  A
C1406      C1407   1.398       .  A
C1406      H1421   1.086       .  S
C1407      C1408   1.412       .  A
C1407      C1411   1.443       .  S
C1408      C1409   1.403       .  A
C1409      C1410   1.401       .  A
C1409      H1422   1.085       .  S
C1410      C1412   1.444       .  S
C1411      N1415   1.157       .  T
C1412      N1416   1.157       .  T
C1413      N1418   1.157       .  T
C1414      N1417   1.158   1_556  T
O1423     Co1443   1.882       .  S
O1424     Co1444   1.958       .  S
O1427     Co1681   1.962       .  S
O1427      C1433   1.253       .  A
O1428     Co1680   1.963   1_454  S
O1428      C1434   1.267       .  A
O1429      C1432   1.275       .  A
O1430      C1431   1.299       .  A
C1431      C1640   1.483       .  S
C1433      C1496   1.491       .  S
C1434      C1621   1.485       .  S
O1435     Co1680   1.991   1_554  S
O1435      C1448   1.261       .  A
O1436     Co1681   2.029       .  S
O1436      C1449   1.281       .  A
O1437      C1450   1.268       .  A
O1438      C1451   1.265   1_655  A
O1439     Co1444   2.028       .  S
O1440     Co1443   2.124       .  S
Co1443     O1665   1.977   1_655  S
Co1443     O1672   1.996       .  S
Co1443     O1447   1.995   1_565  S
Co1444     O1664   1.966   1_554  S
Co1444     O1673   2.032   1_554  S
Co1446     O1684   2.042       .  S
O1447     Co1683   2.043       .  S
C1448      C1520   1.470       .  S
C1449      C1597   1.495       .  S
C1450      C1549   1.496       .  S
C1452      C1616   1.484       .  S
C1452      C1453   1.410       .  A
C1452      C1457   1.408       .  A
C1453      C1645   1.486       .  S
C1453      C1454   1.398       .  A
C1454      C1455   1.403       .  A
C1454      H1459   1.086       .  S
C1455      C1592   1.487       .  S
C1455      C1456   1.420       .  A
C1456      C1568   1.495       .  S
C1456      C1457   1.411       .  A
C1457      H1458   1.085       .  S
C1460      C1525   1.480       .  S
C1460      C1461   1.419       .  A
C1460      C1465   1.400       .  A
C1461      C1544   1.493       .  S
C1461      C1462   1.410       .  A
C1462      C1463   1.403       .  A
C1462      H1467   1.085       .  S
C1463      C1501   1.484       .  S
C1463      C1464   1.412       .  A
C1464      C1477   1.485       .  S
C1464      C1465   1.398       .  A
C1465      H1466   1.085       .  S
C1468      C1469   1.409       .  A
C1468      C1473   1.399       .  A
C1468      C1482   1.445       .  S
C1469      C1474   1.483       .  S
C1470      C1471   1.404       .  A
C1470      H1489   1.084       .  S
C1471      C1483   1.443       .  S
C1472      C1473   1.409       .  A
C1473      H1488   1.085       .  S
C1474      C1475   1.404       .  A
C1475      C1476   1.402       .  A
C1475      H1490   1.086       .  S
C1476      C1477   1.412       .  A
C1476      C1480   1.445       .  S
C1478      C1479   1.399       .  A
C1478      H1491   1.085       .  S
C1479      C1481   1.443       .  S
C1480      N1484   1.157       .  T
C1481      N1485   1.157       .  T
C1482      N1487   1.157       .  T
C1483      N1486   1.157       .  T
C1492      C1497   1.406       .  A
C1492      C1506   1.444       .  S
C1493      C1498   1.488       .  S
C1493      C1494   1.398       .  A
C1494      C1495   1.396       .  A
C1494      H1513   1.084       .  S
C1495      C1496   1.420       .  A
C1495      C1507   1.445       .  S
C1497      H1512   1.083       .  S
C1498      C1499   1.405       .  A
C1499      C1500   1.401       .  A
C1499      H1514   1.084       .  S
C1500      C1501   1.408       .  A
C1500      C1504   1.443       .  S
C1502      C1503   1.400       .  A
C1502      H1515   1.085       .  S
C1503      C1505   1.444       .  S
C1504      N1508   1.157       .  T
C1505      N1509   1.157       .  T
C1506      N1511   1.157       .  T
C1507      N1510   1.157       .  T
C1516      C1517   1.409       .  A
C1516      C1521   1.395       .  A
C1516      C1530   1.446       .  S
C1517      C1522   1.482       .  S
C1518      C1519   1.404       .  A
C1518      H1537   1.085       .  S
C1519      C1531   1.443       .  S
C1520      C1521   1.402       .  A
C1521      H1536   1.084       .  S
C1522      C1527   1.412       .  A
C1523      C1524   1.399       .  A
C1523      H1538   1.085       .  S
C1524      C1525   1.410       .  A
C1524      C1528   1.442       .  S
C1526      C1527   1.397       .  A
C1526      H1539   1.085       .  S
C1527      C1529   1.444       .  S
C1528      N1532   1.157       .  T
C1529      N1533   1.157       .  T
C1530      N1535   1.157       .  T
C1531      N1534   1.157   1_554  T
C1540      C1541   1.407       .  A
C1540      C1545   1.400       .  A
C1540      C1554   1.443       .  S
C1541      C1546   1.485       .  S
C1542      C1543   1.408       .  A
C1542      H1561   1.084       .  S
C1543      C1555   1.443       .  S
C1544      C1545   1.406       .  A
C1545      H1560   1.083       .  S
C1546      C1551   1.406       .  A
C1547      C1548   1.406       .  A
C1547      H1562   1.085       .  S
C1548      C1552   1.443       .  S
C1549      C1550   1.411       .  A
C1550      C1551   1.402       .  A
C1550      H1563   1.084       .  S
C1551      C1553   1.444       .  S
C1552      N1556   1.157       .  T
C1553      N1557   1.157       .  T
C1554      N1559   1.157       .  T
C1555      N1558   1.157       .  T
C1564      C1569   1.403       .  A
C1564      C1578   1.443       .  S
C1565      C1570   1.498       .  S
C1565      C1566   1.406       .  A
C1566      C1567   1.403       .  A
C1566      H1585   1.084       .  S
C1567      C1568   1.414       .  A
C1567      C1579   1.444       .  S
C1569      H1584   1.083       .  S
C1570      C1575   1.413       .  A
C1571      C1572   1.406       .  A
C1571      H1586   1.085       .  S
C1572      C1576   1.443       .  S
C1573      C1574   1.406       .  A
C1574      C1575   1.402       .  A
C1574      H1587   1.085       .  S
C1575      C1577   1.445       .  S
C1576      N1580   1.157       .  T
C1577      N1581   1.157       .  T
C1578      N1583   1.157       .  T
C1579      N1582   1.157       .  T
C1588      C1593   1.401       .  A
C1588      C1602   1.444       .  S
C1589      C1594   1.492       .  S
C1589      C1590   1.406       .  A
C1590      C1591   1.402       .  A
C1590      H1609   1.086       .  S
C1591      C1592   1.410       .  A
C1591      C1603   1.442       .  S
C1593      H1608   1.086       .  S
C1594      C1595   1.403       .  A
C1595      C1596   1.405       .  A
C1595      H1610   1.084       .  S
C1596      C1597   1.419       .  A
C1596      C1600   1.443       .  S
C1598      C1599   1.402       .  A
C1598      H1611   1.083       .  S
C1599      C1601   1.444       .  S
C1600      N1604   1.157       .  T
C1601      N1605   1.157       .  T
C1602      N1607   1.157       .  T
C1603      N1606   1.157       .  T
C1612      C1613   1.413       .  A
C1612      C1617   1.401       .  A
C1612      C1626   1.443       .  S
C1613      C1618   1.488       .  S
C1614      C1615   1.399       .  A
C1614      H1633   1.086       .  S
C1615      C1627   1.444       .  S
C1616      C1617   1.401       .  A
C1617      H1632   1.086       .  S
C1618      C1619   1.404       .  A
C1619      C1620   1.401       .  A
C1619      H1634   1.085       .  S
C1620      C1624   1.443       .  S
C1621      C1622   1.409   1_455  A
C1622      C1623   1.398       .  A
C1622      H1635   1.084       .  S
C1623      C1625   1.445       .  S
C1624      N1628   1.157       .  T
C1625      N1629   1.157       .  T
C1626      N1631   1.157       .  T
C1627      N1630   1.157       .  T
C1636      C1637   1.407       .  A
C1636      C1641   1.399       .  A
C1636      C1650   1.444       .  S
C1637      C1642   1.482       .  S
C1638      C1639   1.403       .  A
C1638      H1657   1.085       .  S
C1639      C1651   1.446       .  S
C1640      C1641   1.405       .  A
C1641      H1656   1.084       .  S
C1642      C1643   1.400       .  A
C1642      C1647   1.411       .  A
C1643      C1644   1.401       .  A
C1643      H1658   1.086       .  S
C1644      C1645   1.412       .  A
C1644      C1648   1.443       .  S
C1645      C1646   1.403       .  A
C1646      C1647   1.401       .  A
C1646      H1659   1.085       .  S
C1647      C1649   1.444       .  S
C1648      N1652   1.157       .  T
C1649      N1653   1.157       .  T
C1650      N1655   1.157       .  T
C1651      N1654   1.158       .  T
O1660     Co1680   1.885       .  S
O1661     Co1681   1.959       .  S
O1664      C1670   1.252       .  A
O1665      C1671   1.269       .  A
O1666      C1669   1.277       .  A
O1667      C1668   1.299       .  A
C1668      C1877   1.481       .  S
C1670      C1733   1.493       .  S
C1671      C1858   1.488       .  S
O1672      C1685   1.263       .  A
O1673      C1686   1.282       .  A
O1674      C1687   1.266       .  A
O1675      C1688   1.262   1_655  A
O1676     Co1681   2.022       .  S
O1677     Co1680   2.113       .  S
Co1680     O1684   1.991   1_566  S
C1685      C1757   1.475       .  S
C1686      C1834   1.493       .  S
C1687      C1786   1.495       .  S
C1689      C1853   1.482       .  S
C1689      C1690   1.413       .  A
C1689      C1694   1.403       .  A
C1690      C1882   1.486       .  S
C1690      C1691   1.400       .  A
C1691      C1692   1.401       .  A
C1691      H1696   1.086       .  S
C1692      C1829   1.482       .  S
C1692      C1693   1.415       .  A
C1693      C1805   1.488       .  S
C1693      C1694   1.405       .  A
C1694      H1695   1.086       .  S
C1697      C1762   1.478       .  S
C1697      C1698   1.417       .  A
C1697      C1702   1.400       .  A
C1698      C1781   1.494       .  S
C1698      C1699   1.409       .  A
C1699      C1700   1.407       .  A
C1699      H1704   1.085       .  S
C1700      C1738   1.482       .  S
C1700      C1701   1.414       .  A
C1701      C1714   1.490       .  S
C1701      C1702   1.397       .  A
C1702      H1703   1.086       .  S
C1705      C1706   1.411       .  A
C1705      C1710   1.401       .  A
C1705      C1719   1.445       .  S
C1706      C1711   1.489       .  S
C1707      C1708   1.406       .  A
C1707      H1726   1.085       .  S
C1708      C1720   1.442       .  S
C1709      C1710   1.409       .  A
C1710      H1725   1.085       .  S
C1711      C1712   1.404       .  A
C1712      C1713   1.401       .  A
C1712      H1727   1.085       .  S
C1713      C1714   1.412       .  A
C1713      C1717   1.445       .  S
C1715      C1716   1.401       .  A
C1715      H1728   1.085       .  S
C1716      C1718   1.443       .  S
C1717      N1721   1.157       .  T
C1718      N1722   1.157       .  T
C1719      N1724   1.157       .  T
C1720      N1723   1.157       .  T
C1729      C1734   1.407       .  A
C1729      C1743   1.444       .  S
C1730      C1735   1.492       .  S
C1730      C1731   1.400       .  A
C1731      C1732   1.397       .  A
C1731      H1750   1.084       .  S
C1732      C1733   1.420       .  A
C1732      C1744   1.445       .  S
C1734      H1749   1.084       .  S
C1735      C1736   1.406       .  A
C1736      C1737   1.401       .  A
C1736      H1751   1.084       .  S
C1737      C1738   1.408       .  A
C1737      C1741   1.443       .  S
C1739      C1740   1.401       .  A
C1739      H1752   1.084       .  S
C1740      C1742   1.444       .  S
C1741      N1745   1.157       .  T
C1742      N1746   1.157       .  T
C1743      N1748   1.157       .  T
C1744      N1747   1.157       .  T
C1753      C1754   1.410       .  A
C1753      C1758   1.397       .  A
C1753      C1767   1.446       .  S
C1754      C1759   1.482       .  S
C1755      C1756   1.403       .  A
C1755      H1774   1.084       .  S
C1756      C1768   1.443       .  S
C1757      C1758   1.405       .  A
C1758      H1773   1.085       .  S
C1759      C1764   1.411       .  A
C1760      C1761   1.400       .  A
C1760      H1775   1.084       .  S
C1761      C1762   1.410       .  A
C1761      C1765   1.443       .  S
C1763      C1764   1.398       .  A
C1763      H1776   1.085       .  S
C1764      C1766   1.444       .  S
C1765      N1769   1.157       .  T
C1766      N1770   1.157       .  T
C1767      N1772   1.157       .  T
C1768      N1771   1.157       .  T
C1777      C1778   1.408       .  A
C1777      C1782   1.402       .  A
C1777      C1791   1.443       .  S
C1778      C1783   1.487       .  S
C1779      C1780   1.408       .  A
C1779      H1798   1.084       .  S
C1780      C1792   1.443       .  S
C1781      C1782   1.406       .  A
C1782      H1797   1.084       .  S
C1783      C1788   1.407       .  A
C1784      C1785   1.405       .  A
C1784      H1799   1.085       .  S
C1785      C1789   1.444       .  S
C1786      C1787   1.411       .  A
C1787      C1788   1.402       .  A
C1787      H1800   1.084       .  S
C1788      C1790   1.444       .  S
C1789      N1793   1.157       .  T
C1790      N1794   1.157       .  T
C1791      N1796   1.157       .  T
C1792      N1795   1.157       .  T
C1801      C1806   1.401       .  A
C1801      C1815   1.443       .  S
C1802      C1807   1.492       .  S
C1802      C1803   1.404       .  A
C1803      C1804   1.399       .  A
C1803      H1822   1.084       .  S
C1804      C1805   1.413       .  A
C1804      C1816   1.444       .  S
C1806      H1821   1.084       .  S
C1807      C1812   1.412       .  A
C1808      C1809   1.402       .  A
C1808      H1823   1.085       .  S
C1809      C1813   1.444       .  S
C1810      C1811   1.406       .  A
C1811      C1812   1.399       .  A
C1811      H1824   1.086       .  S
C1812      C1814   1.445       .  S
C1813      N1817   1.157       .  T
C1814      N1818   1.157       .  T
C1815      N1820   1.157       .  T
C1816      N1819   1.157       .  T
C1825      C1830   1.400       .  A
C1825      C1839   1.444       .  S
C1826      C1831   1.491       .  S
C1826      C1827   1.407       .  A
C1827      C1828   1.402       .  A
C1827      H1846   1.085       .  S
C1828      C1829   1.409       .  A
C1828      C1840   1.443       .  S
C1830      H1845   1.085       .  S
C1831      C1832   1.402       .  A
C1832      C1833   1.401       .  A
C1832      H1847   1.085       .  S
C1833      C1834   1.419       .  A
C1833      C1837   1.443       .  S
C1835      C1836   1.403       .  A
C1835      H1848   1.083       .  S
C1836      C1838   1.444       .  S
C1837      N1841   1.157       .  T
C1838      N1842   1.157       .  T
C1839      N1844   1.157       .  T
C1840      N1843   1.157       .  T
C1849      C1850   1.410       .  A
C1849      C1854   1.400       .  A
C1849      C1863   1.443       .  S
C1850      C1855   1.483       .  S
C1851      C1852   1.399       .  A
C1851      H1870   1.085       .  S
C1852      C1864   1.445       .  S
C1853      C1854   1.402       .  A
C1854      H1869   1.086       .  S
C1855      C1856   1.404       .  A
C1856      C1857   1.403       .  A
C1856      H1871   1.085       .  S
C1857      C1861   1.443       .  S
C1858      C1859   1.409   1_455  A
C1859      C1860   1.398       .  A
C1859      H1872   1.085       .  S
C1860      C1862   1.445       .  S
C1861      N1865   1.157       .  T
C1862      N1866   1.157       .  T
C1863      N1868   1.157       .  T
C1864      N1867   1.157       .  T
C1873      C1874   1.409       .  A
C1873      C1878   1.400       .  A
C1873      C1887   1.444       .  S
C1874      C1879   1.484       .  S
C1875      C1876   1.402       .  A
C1875      H1894   1.085       .  S
C1876      C1888   1.445       .  S
C1877      C1878   1.405       .  A
C1878      H1893   1.085       .  S
C1879      C1880   1.401       .  A
C1879      C1884   1.412       .  A
C1880      C1881   1.399       .  A
C1880      H1895   1.085       .  S
C1881      C1882   1.413       .  A
C1881      C1885   1.444       .  S
C1882      C1883   1.404       .  A
C1883      C1884   1.400       .  A
C1883      H1896   1.084       .  S
C1884      C1886   1.444       .  S
C1885      N1889   1.157       .  T
C1886      N1890   1.157       .  T
C1887      N1892   1.157       .  T
C1888      N1891   1.158   1_556  T
