geometry optimzed in LAMMPS
_audit_creation_date              2020-12-01 
_audit_creation_method            'lammps2cif' 
_symmetry_space_group_name_H-M    'P1' 
_symmetry_Int_Tables_number       1 
_symmetry_cell_setting            triclinic 
loop_ 
_symmetry_equiv_pos_as_xyz 
  x,y,z 
_cell_length_a                    26.00724524 
_cell_length_b                    26.23919726720261 
_cell_length_c                    40.55508093516169 
_cell_angle_alpha                 90.0126381607963 
_cell_angle_beta                  89.92070990868365 
_cell_angle_gamma                 89.01370281846377 
loop_ 
_atom_site_label 
_atom_site_type_symbol 
_atom_site_fract_x 
_atom_site_fract_y 
_atom_site_fract_z 
_atom_site_charge 
O1          O  0.84647701  0.87606397  0.19691773    -0.82500
C2          C  0.64048979  0.82755920  0.17340577     0.96800
O3          O  0.67535586  0.79421355  0.17920860    -0.71600
O4          O  0.75502751  0.79870792  0.14134177    -0.75200
Al5        Al  0.74884711  0.80108520  0.18703801     1.49000
C6          C  0.78857589  0.81913980  0.12395047     0.92100
O7          O  0.74879788  0.93804317  0.14142440    -0.81500
O8          O  0.74005770  0.93393185  0.23905762    -0.75000
Al9        Al  0.79592705  0.90484452  0.16986761     1.90100
O10         O  0.69417813  0.95962431  0.18027309    -0.74100
O11         O  0.68407970  0.85012452  0.24343946    -0.73900
O12         O  0.64596921  0.87306597  0.18209281    -0.79600
O13         O  0.74286476  0.79241374  0.23232257    -0.77800
O14         O  0.74657642  0.86872235  0.18886741    -1.13900
O15         O  0.82282464  0.79622216  0.19468414    -0.73100
C16         C  0.85547005  0.82961637  0.20266883     0.97600
C17         C  0.71540231  0.96886870  0.15280355     0.94000
Al18       Al  0.69512919  0.90116074  0.20954897     1.55600
O19         O  0.81192356  0.85776689  0.13427417    -0.77800
C20         C  0.70882514  0.80994526  0.25109794     0.98200
C21         C  0.77117157  0.96649593  0.22853763     0.93000
O22         O  0.79234085  0.96075525  0.20063685    -0.83100
O23         O  0.65167291  0.63938493  0.44378775    -0.82500
C24         C  0.85718466  0.69266295  0.42565482     0.96800
O25         O  0.82162019  0.72498032  0.43229032    -0.71600
O26         O  0.74273983  0.72436545  0.39456336    -0.75200
Al27       Al  0.74823258  0.71677912  0.43975892     1.49000
C28         C  0.71103100  0.70528660  0.37539080     0.92100
O29         O  0.75378040  0.58460360  0.38889306    -0.81500
O30         O  0.75691604  0.58082265  0.48712313    -0.75000
Al31       Al  0.70437813  0.61409624  0.41726410     1.90100
O32         O  0.80524546  0.55883910  0.42839810    -0.74100
O33         O  0.81613963  0.66694487  0.99474228    -0.73900
O34         O  0.85285012  0.64619491  0.43260854    -0.79600
O35         O  0.75308384  0.72098307  0.48535748    -0.77800
O36         O  0.75183416  0.64925757  0.43871244    -1.13900
O37         O  0.67429036  0.71963146  0.44695506    -0.73100
C38         C  0.64188981  0.68473122  0.45194412     0.97600
C39         C  0.78622784  0.55276866  0.39988430     0.94000
Al40       Al  0.80310904  0.61575667  0.45901551     1.55600
O41         O  0.68965935  0.66396660  0.38284926    -0.77800
C42         C  0.79112034  0.70682568  0.00285083     0.98200
C43         C  0.72555918  0.54931544  0.47533487     0.93000
O44         O  0.70696774  0.55586625  0.44671038    -0.83100
O45         O  0.05082504  0.80393504  0.30192024    -0.82500
C46         C  0.18041247  0.64468102  0.32995618     0.96800
O47         O  0.13426514  0.65217981  0.32192090    -0.71600
O48         O  0.04874041  0.70649422  0.32488321    -0.75200
Al49       Al  0.10625021  0.70221357  0.29429621     1.49000
C50         C  0.04319394  0.72790980  0.35274736     0.92100
O51         O  0.15757165  0.81748388  0.36682656    -0.81500
O52         O  0.21800514  0.82099218  0.30404676    -0.75000
Al53       Al  0.10836186  0.80405376  0.33224050     1.90100
O54         O  0.21609510  0.75841287  0.35904384    -0.74100
O55         O  0.21701909  0.73938722  0.26865730    -0.73900
O56         O  0.21470507  0.67713816  0.32378431    -0.79600
O57         O  0.15516528  0.68636024  0.25933758    -0.77800
O58         O  0.14207422  0.75178623  0.31338738    -1.13900
O59         O  0.07352575  0.74749289  0.26458442    -0.73100
C60         C  0.04390941  0.78303187  0.27413963     0.97600
C61         C  0.19744404  0.79361002  0.37620753     0.94000
Al62       Al  0.21052415  0.74915430  0.31379577     1.55600
O63         O  0.07436734  0.76101874  0.36228941    -0.77800
C64         C  0.19609611  0.70760756  0.25031952     0.98200
C65         C  0.18549385  0.85618095  0.29743204     0.93000
O66         O  0.13857242  0.85157046  0.30428880    -0.83100
O67         O  0.44741550  0.69890857  0.05084817    -0.82500
C68         C  0.31898773  0.85789496  0.08086318     0.96800
O69         O  0.36503531  0.84898041  0.07324554    -0.71600
O70         O  0.44931064  0.79519691  0.07501259    -0.75200
Al71       Al  0.39198083  0.80038498  0.04474191     1.49000
C72         C  0.45553611  0.77331470  0.10267644     0.92100
O73         O  0.34045095  0.68398831  0.11597788    -0.81500
O74         O  0.27943207  0.68178343  0.05411632    -0.75000
Al75       Al  0.38981314  0.69794096  0.08131751     1.90100
O76         O  0.28233358  0.74404732  0.10940375    -0.74100
O77         O  0.28101761  0.76411139  0.01878831    -0.73900
O78         O  0.28395738  0.82641524  0.07405208    -0.79600
O79         O  0.33944044  0.81832530  0.50939636    -0.77800
O80         O  0.35610242  0.75078106  0.06338150    -1.13900
O81         O  0.42394209  0.75591635  0.01421450    -0.73100
C82         C  0.45451265  0.72105878  0.02348207     0.97600
C83         C  0.30137308  0.70854221  0.12622319     0.94000
Al84       Al  0.28754972  0.75384866  0.06403091     1.55600
O85         O  0.42482743  0.73941905  0.11180205    -0.77800
C86         C  0.29885060  0.79632096  0.50061607     0.98200
C87         C  0.31219205  0.64733328  0.04629706     0.93000
O88         O  0.35916524  0.65238737  0.05269145    -0.83100
O89         O  0.15096006  0.13318778  0.19980966    -0.82500
C90         C  0.35698136  0.18402204  0.17528741     0.96800
O91         O  0.32187744  0.21681941  0.18213330    -0.71600
O92         O  0.23970291  0.21652165  0.14663279    -0.75200
Al93       Al  0.24869106  0.20984727  0.19194032     1.49000
C94         C  0.20636129  0.19721717  0.12861108     0.92100
O95         O  0.24941831  0.07673312  0.14216851    -0.81500
O96         O  0.25923387  0.07494081  0.24039768    -0.75000
Al97       Al  0.20209106  0.10706848  0.17186455     1.90100
O98         O  0.30377105  0.05230252  0.18044273    -0.74100
O99         O  0.31649341  0.15800184  0.24612513    -0.73900
O100        O  0.35180472  0.13819356  0.18345628    -0.79600
O101        O  0.25720811  0.21573648  0.23720108    -0.77800
O102        O  0.25134254  0.14236031  0.19170782    -1.13900
O103        O  0.17511187  0.21317879  0.20175542    -0.73100
C104        C  0.14241377  0.17881712  0.20797379     0.97600
C105        C  0.28385122  0.04605763  0.15224305     0.94000
Al106      Al  0.30352088  0.10891377  0.21106738     1.55600
O107        O  0.18494871  0.15655168  0.13748467    -0.77800
C108        C  0.29219618  0.19784505  0.25496223     0.98200
C109        C  0.22730854  0.04338888  0.22964942     0.93000
O110        O  0.20673419  0.04913378  0.20153959    -0.83100
O111        O  0.34228684  0.36787862  0.44807061    -0.82500
C112        C  0.13558476  0.32314134  0.42616934     0.96800
O113        O  0.16933758  0.28898688  0.43296261    -0.71600
O114        O  0.25037426  0.28687498  0.39591367    -0.75200
Al115      Al  0.24309684  0.29392571  0.44141953     1.49000
C116        C  0.28515146  0.30437344  0.37817719     0.92100
O117        O  0.24530204  0.42644827  0.39116365    -0.81500
O118        O  0.23720969  0.42973352  0.48938311    -0.75000
Al119      Al  0.29219736  0.39512858  0.42060961     1.90100
O120        O  0.19265694  0.45356374  0.43007011    -0.74100
O121        O  0.17446114  0.34690221  0.99622391    -0.73900
O122        O  0.14251936  0.36887694  0.43379100    -0.79600
O123        O  0.23608374  0.28872397  0.48700087    -0.77800
O124        O  0.24242604  0.36157709  0.44100971    -1.13900
O125        O  0.31704638  0.28846103  0.44964757    -0.73100
C126        C  0.35075125  0.32199118  0.45543198     0.97600
C127        C  0.21232148  0.45829127  0.40162414     0.94000
Al128      Al  0.19177631  0.39686519  0.46071853     1.55600
O129        O  0.30738506  0.34479741  0.38654680    -0.77800
C130        C  0.19844148  0.30735340  0.00596226     0.98200
C131        C  0.27030856  0.45987070  0.47844930     0.93000
O132        O  0.29037287  0.45325127  0.45022039    -0.83100
O133        O  0.92724429  0.31768650  0.33308262    -0.82500
C134        C  0.79932753  0.15816162  0.29404253     0.96800
O135        O  0.83519854  0.15454890  0.31497640    -0.71600
O136        O  0.92481249  0.18726379  0.29267614    -0.75200
Al137      Al  0.88330674  0.20196308  0.33121604     1.49000
C138        C  0.95015462  0.21920013  0.27618211     0.92100
O139        O  0.84843380  0.29967738  0.25355886    -0.81500
O140        O  0.78514366  0.31926604  0.34201811    -0.75000
Al141      Al  0.88553409  0.30627346  0.29475878     1.90100
O142        O  0.77296919  0.30015145  0.27659087    -0.74100
O143        O  0.77186589  0.22098346  0.35285274    -0.73900
O144        O  0.77724780  0.20055411  0.28772897    -0.79600
O145        O  0.84818016  0.20938309  0.37300929    -0.77800
O146        O  0.85124892  0.25578799  0.31349909    -1.13900
O147        O  0.93686205  0.23887241  0.34998637    -0.73100
C148        C  0.95016952  0.28469527  0.35084262     0.97600
C149        C  0.79997641  0.30319474  0.25106667     0.94000
Al150      Al  0.78277933  0.25989083  0.31469525     1.55600
O151        O  0.93794218  0.26561392  0.27643264    -0.77800
C152        C  0.80007661  0.21143917  0.37710233     0.98200
C153        C  0.80886973  0.35921275  0.33396368     0.93000
O154        O  0.84070846  0.35899210  0.31042508    -0.83100
O155        O  0.56806576  0.19590561  0.08391033    -0.82500
C156        C  0.68848609  0.36097691  0.04254313     0.96800
O157        O  0.65330588  0.36343106  0.06409298    -0.71600
O158        O  0.56654533  0.32482695  0.04136350    -0.75200
Al159      Al  0.60716200  0.31343412  0.08035562     1.49000
C160        C  0.54292126  0.29164972  0.02481647     0.92100
O161        O  0.64509267  0.20784812  0.50726063    -0.81500
O162        O  0.71288297  0.20261571  0.09227032    -0.75000
Al163      Al  0.61033532  0.20766117  0.04580239     1.90100
O164        O  0.72280537  0.22012101  0.02666793    -0.74100
O165        O  0.71894328  0.30206888  0.10207958    -0.73900
O166        O  0.71207180  0.31942008  0.03627877    -0.79600
O167        O  0.64174520  0.30768646  0.12228513    -0.77800
O168        O  0.64203033  0.26072356  0.06341855    -1.13900
O169        O  0.55441981  0.27498051  0.09897301    -0.73100
C170        C  0.54270552  0.22876462  0.10036270     0.97600
C171        C  0.69324879  0.20925849  0.50324989     0.94000
Al172      Al  0.71066996  0.26102154  0.06423287     1.55600
O173        O  0.55683444  0.24558276  0.02601508    -0.77800
C174        C  0.68984401  0.30814533  0.12645786     0.98200
C175        C  0.69103522  0.16111274  0.08554227     0.93000
O176        O  0.65746469  0.15829849  0.06315586    -0.83100
C177        C  0.77298867  0.19846228  0.46962554    -0.21000
C178        C  0.71873254  0.20258088  0.47042882    -0.07600
C179        C  0.69195238  0.20546105  0.44018384     0.13300
C180        C  0.71994518  0.20546076  0.41053915    -0.21100
C181        C  0.77432454  0.20434917  0.40978047    -0.07600
C182        C  0.80105634  0.20014282  0.43999172     0.13300
C183        C  0.85897509  0.19909572  0.44161876    -0.24400
H184        H  0.79411683  0.19579339  0.49258359     0.14500
H185        H  0.69866762  0.20824125  0.38764757     0.14600
C186        C  0.63414614  0.21064753  0.43861288    -0.24400
H187        H  0.87313518  0.19574664  0.46736519     0.04800
H188        H  0.87429235  0.23494128  0.43122618     0.08000
H189        H  0.87446479  0.16585694  0.42762207     0.08000
H190        H  0.62127215  0.24612021  0.45134728     0.08000
H191        H  0.61625915  0.17708340  0.45034764     0.08000
H192        H  0.61999163  0.21282746  0.41281604     0.04800
C193        C  0.76616936  0.32906445  0.16055914    -0.21000
C194        C  0.71443037  0.31367251  0.15944149    -0.07600
C195        C  0.69077316  0.29774293  0.18895793     0.13300
C196        C  0.71977757  0.29603599  0.21813615    -0.21100
C197        C  0.77225594  0.30915331  0.21899370    -0.07600
C198        C  0.79536932  0.32679959  0.18972614     0.13300
C199        C  0.85049958  0.34344579  0.18886957    -0.24400
H200        H  0.78458707  0.34176599  0.13804991     0.14500
H201        H  0.70133183  0.28251534  0.24041731     0.14600
C202        C  0.63584650  0.28021124  0.18983526    -0.24400
H203        H  0.86144995  0.35817830  0.16420862     0.04800
H204        H  0.87652452  0.31066987  0.19456022     0.08000
H205        H  0.85626605  0.37437674  0.20711719     0.08000
H206        H  0.63120420  0.24707334  0.17312258     0.08000
H207        H  0.60958597  0.31180442  0.18213641     0.08000
H208        H  0.62409169  0.26820063  0.21496664     0.04800
C209        C  0.43827514  0.34832223  0.47257188    -0.21000
C210        C  0.40119573  0.30949992  0.47116443    -0.07600
C211        C  0.41266679  0.26212325  0.48622825     0.13300
C212        C  0.45941539  0.25577209  0.50302106    -0.21100
C213        C  0.49562599  0.30414468  0.00552124    -0.07600
C214        C  0.46111350  0.34406799  0.01458892     0.13300
C215        C  0.47372229  0.38214309  0.04110270    -0.24400
H216        H  0.38634899  0.37823980  0.00623820     0.14500
H217        H  0.46720644  0.21970123  0.51514462     0.14600
C218        C  0.37588988  0.21829517  0.48563917    -0.24400
H219        H  0.44183725  0.41021724  0.04506004     0.04800
H220        H  0.50832848  0.40372883  0.03393230     0.08000
H221        H  0.48065845  0.36213609  0.06484764     0.08000
H222        H  0.36849698  0.20666244  0.45977497     0.08000
H223        H  0.33922680  0.22962352  0.49788105     0.08000
H224        H  0.39153706  0.18437760  0.49886176     0.04800
C225        C  0.06361330  0.35211833  0.39049419    -0.21000
C226        C  0.08733001  0.31183784  0.40818120    -0.07600
C227        C  0.06374536  0.26389697  0.40855129     0.13300
C228        C  0.01806417  0.25738238  0.39073022    -0.21100
C229        C  0.99511057  0.29725191  0.37206270    -0.07600
C230        C  0.01815580  0.34566583  0.37252057     0.13300
C231        C  0.99605264  0.39080707  0.35400569    -0.24400
H232        H  0.08138832  0.38918664  0.39014508     0.14500
H233        H  0.00073478  0.22013708  0.39103929     0.14600
C234        C  0.08574789  0.21965673  0.42795673    -0.24400
H235        H  0.01880636  0.42572501  0.35794725     0.04800
H236        H  0.95622648  0.39913048  0.36261632     0.08000
H237        H  0.99616463  0.38282784  0.32712528     0.08000
H238        H  0.08952399  0.23051127  0.45430376     0.08000
H239        H  0.12397390  0.20831251  0.41791077     0.08000
H240        H  0.06081310  0.18577238  0.42666755     0.04800
C241        C  0.43955711  0.15721272  0.14839900    -0.21000
C242        C  0.40501866  0.19734117  0.15703015    -0.07600
C243        C  0.41687577  0.24739000  0.14698780     0.13300
C244        C  0.46233055  0.25565165  0.12919139    -0.21100
C245        C  0.49659359  0.21554249  0.12040046    -0.07600
C246        C  0.48460990  0.16543367  0.13009379     0.13300
C247        C  0.51877619  0.12029578  0.12153848    -0.24400
H248        H  0.43105886  0.11850785  0.15557266     0.14500
H249        H  0.47050511  0.29421592  0.12147189     0.14600
C250        C  0.38211100  0.29254365  0.15443195    -0.24400
H251        H  0.50427187  0.08431760  0.13224027     0.04800
H252        H  0.55806032  0.12615577  0.13133072     0.08000
H253        H  0.52037316  0.11522856  0.09437850     0.08000
H254        H  0.37739099  0.29682785  0.18149738     0.08000
H255        H  0.34407792  0.28737223  0.14260204     0.08000
H256        H  0.39797639  0.32869339  0.14486239     0.04800
C257        C  0.04236005  0.23311958  0.26768168    -0.21000
C258        C  0.99862853  0.20528742  0.25908818    -0.07600
C259        C  0.00198473  0.16941798  0.23337219     0.13300
C260        C  0.04920263  0.16235051  0.21675864    -0.21100
C261        C  0.09302555  0.19074215  0.22507841    -0.07600
C262        C  0.08950140  0.22613782  0.25128597     0.13300
C263        C  0.13549219  0.25518932  0.26311475    -0.24400
H264        H  0.03953334  0.26057953  0.28760606     0.14500
H265        H  0.05178911  0.13476952  0.19692707     0.14600
C266        C  0.95556377  0.14014760  0.22276320    -0.24400
H267        H  0.12601657  0.27946299  0.28480492     0.04800
H268        H  0.14953967  0.28057073  0.24329676     0.08000
H269        H  0.16657136  0.22803843  0.27054906     0.08000
H270        H  0.92465347  0.16714190  0.21481066     0.08000
H271        H  0.94135070  0.11686602  0.24361578     0.08000
H272        H  0.96458815  0.11415349  0.20184719     0.04800
C273        C  0.18206749  0.22888598  0.03803653    -0.21000
C274        C  0.18803086  0.28226382  0.03813792    -0.07600
C275        C  0.19305615  0.30744948  0.06874452     0.13300
C276        C  0.19520960  0.27841269  0.09785337    -0.21100
C277        C  0.19301882  0.22476027  0.09753871    -0.07600
C278        C  0.18431834  0.19986259  0.06727594     0.13300
C279        C  0.18063640  0.14270575  0.06537536    -0.24400
H280        H  0.17817387  0.20942503  0.01458901     0.14500
H281        H  0.20111076  0.29796633  0.12109431     0.14600
C282        C  0.19987839  0.36418513  0.07187448    -0.24400
H283        H  0.17524732  0.12944033  0.03962189     0.04800
H284        H  0.14726635  0.12987420  0.08011040     0.08000
H285        H  0.21642727  0.12458354  0.07508382     0.08000
H286        H  0.19925432  0.38451389  0.04804459     0.08000
H287        H  0.23734531  0.37180439  0.08384890     0.08000
H288        H  0.16855760  0.38054024  0.08745007     0.04800
C289        C  0.30529718  0.19744732  0.31579915    -0.21000
C290        C  0.30304530  0.22490864  0.28624685    -0.07600
C291        C  0.30444575  0.27900468  0.28738417     0.13300
C292        C  0.30241595  0.30418171  0.31795075    -0.21100
C293        C  0.29857658  0.27674295  0.34735850    -0.07600
C294        C  0.30297910  0.22269478  0.34641192     0.13300
C295        C  0.30526752  0.19136886  0.37757606    -0.24400
H296        H  0.30558936  0.15615266  0.31495327     0.14500
H297        H  0.30063185  0.34546122  0.31875187     0.14600
C298        C  0.30777611  0.31061518  0.25641458    -0.24400
H299        H  0.31295129  0.15041703  0.37223761     0.04800
H300        H  0.26817526  0.19402828  0.39100921     0.08000
H301        H  0.33668925  0.20513069  0.39363400     0.08000
H302        H  0.27189000  0.30785048  0.24186910     0.08000
H303        H  0.34101666  0.29727970  0.24131802     0.08000
H304        H  0.31323223  0.35158266  0.26208085     0.04800
C305        C  0.26101060  0.98507898  0.10790218    -0.21000
C306        C  0.29603293  0.99954075  0.13260454    -0.07600
C307        C  0.33869781  0.96695963  0.13958008     0.13300
C308        C  0.34399028  0.92082543  0.12248104    -0.21100
C309        C  0.30806485  0.90583057  0.09871983    -0.07600
C310        C  0.26643337  0.93864207  0.09095224     0.13300
C311        C  0.22862887  0.92561149  0.06426779    -0.24400
H312        H  0.22827225  0.00973954  0.10220395     0.14500
H313        H  0.37656357  0.89574145  0.12794060     0.14600
C314        C  0.37933362  0.98012313  0.16457867    -0.24400
H315        H  0.19969869  0.95668023  0.06044122     0.04800
H316        H  0.20769494  0.89066997  0.07110324     0.08000
H317        H  0.24932519  0.91925370  0.04060718     0.08000
H318        H  0.36269677  0.98027785  0.18978542     0.08000
H319        H  0.39553002  0.01797517  0.15879032     0.08000
H320        H  0.41167340  0.95188546  0.16457680     0.04800
C321        C  0.24226907  0.52803437  0.01830886    -0.21000
C322        C  0.28117565  0.50623430  0.49716371    -0.07600
C323        C  0.32651222  0.53118031  0.99223386     0.13300
C324        C  0.33456191  0.57765700  0.00804893    -0.21100
C325        C  0.29747855  0.60004920  0.02896167    -0.07600
C326        C  0.25056771  0.57489708  0.03418958     0.13300
C327        C  0.20978335  0.59646661  0.05689487    -0.24400
H328        H  0.20407549  0.53503260  0.49056298     0.14500
H329        H  0.37057827  0.59694589  0.00389816     0.14600
C330        C  0.36932685  0.50929637  0.97106695    -0.24400
H331        H  0.17647671  0.57072519  0.05905406     0.04800
H332        H  0.19529032  0.63357563  0.04722902     0.08000
H333        H  0.22601459  0.60190162  0.08194024     0.08000
H334        H  0.35771512  0.50925725  0.94475907     0.08000
H335        H  0.36307504  0.44044988  0.51679770     0.08000
H336        H  0.40484448  0.53207378  0.97279269     0.04800
C337        C  0.17817940  0.94995117  0.29269479    -0.21000
C338        C  0.20133924  0.90414663  0.28163076    -0.07600
C339        C  0.23427719  0.90488957  0.25387188     0.13300
C340        C  0.24212573  0.95125695  0.23746623    -0.21100
C341        C  0.21820218  0.99656998  0.24835087    -0.07600
C342        C  0.18661819  0.99626805  0.27647192     0.13300
C343        C  0.16091263  0.04455231  0.28871816    -0.24400
H344        H  0.15280460  0.94932749  0.31386981     0.14500
H345        H  0.26660028  0.95218535  0.21586964     0.14600
C346        C  0.25917435  0.85685626  0.24048531    -0.24400
H347        H  0.13680609  0.03756494  0.31082513     0.04800
H348        H  0.13586408  0.06091055  0.26909432     0.08000
H349        H  0.19052671  0.07272757  0.29539659     0.08000
H350        H  0.22914183  0.82912159  0.23382172     0.08000
H351        H  0.28528182  0.83978332  0.25925032     0.08000
H352        H  0.28234857  0.86442700  0.21804350     0.04800
C353        C  0.19391839  0.80790643  0.43647338    -0.21000
C354        C  0.22318354  0.80568955  0.40757190    -0.07600
C355        C  0.27739799  0.81011378  0.40946041     0.13300
C356        C  0.30128513  0.81186430  0.44046547    -0.21100
C357        C  0.27225679  0.80898011  0.46944981    -0.07600
C358        C  0.21771772  0.81008019  0.46742603     0.13300
C359        C  0.18867771  0.82685506  0.99656566    -0.24400
H360        H  0.15245628  0.80578616  0.43500688     0.14500
H361        H  0.34282101  0.81197485  0.44203398     0.14600
C362        C  0.31037682  0.81251035  0.37889823    -0.24400
H363        H  0.16604760  0.86264798  0.99279212     0.04800
H364        H  0.21063943  0.83143159  0.01970992     0.08000
H365        H  0.16177846  0.79479047  0.99958090     0.08000
H366        H  0.29638529  0.84393073  0.36271315     0.08000
H367        H  0.30926504  0.77590085  0.36528867     0.08000
H368        H  0.35122805  0.81972424  0.38500226     0.04800
C369        C  0.27594926  0.69615660  0.21772981    -0.21000
C370        C  0.22176752  0.69619064  0.21839292    -0.07600
C371        C  0.19465112  0.69257567  0.18838810     0.13300
C372        C  0.22225244  0.69308163  0.15852427    -0.21100
C373        C  0.27620439  0.69660079  0.15795802    -0.07600
C374        C  0.30345537  0.69633383  0.18792768     0.13300
C375        C  0.36116846  0.69975466  0.18858317    -0.24400
H376        H  0.29689727  0.69840466  0.24077862     0.14500
H377        H  0.20145464  0.69300994  0.13535355     0.14600
C378        C  0.13678231  0.69148959  0.18760574    -0.24400
H379        H  0.37628012  0.70053326  0.21417529     0.04800
H380        H  0.37329601  0.73514008  0.17596345     0.08000
H381        H  0.37850287  0.66613235  0.17589054     0.08000
H382        H  0.12054613  0.72634214  0.19948983     0.08000
H383        H  0.12314214  0.65728061  0.20088699     0.08000
H384        H  0.12190890  0.68986484  0.16197289     0.04800
C385        C  0.18357579  0.55067064  0.33194157    -0.21000
C386        C  0.19311846  0.59728028  0.34758244    -0.07600
C387        C  0.20705774  0.59797283  0.38117799     0.13300
C388        C  0.21133194  0.55178642  0.39836458    -0.21100
C389        C  0.20251420  0.50510670  0.38262834    -0.07600
C390        C  0.18883685  0.50433233  0.34900094     0.13300
C391        C  0.17811810  0.45498074  0.33150040    -0.24400
H392        H  0.17148704  0.55067819  0.30634657     0.14500
H393        H  0.22248219  0.55199755  0.42413612     0.14600
C394        C  0.21584215  0.64736297  0.39915480    -0.24400
H395        H  0.16572188  0.46155579  0.30562880     0.04800
H396        H  0.14701029  0.43458898  0.34452532     0.08000
H397        H  0.21332501  0.43049539  0.33093183     0.08000
H398        H  0.18062332  0.67184503  0.39798206     0.08000
H399        H  0.24837497  0.66764761  0.38764069     0.08000
H400        H  0.22533475  0.64091800  0.42555040     0.04800
C401        C  0.57175830  0.65599190  0.48807198    -0.21000
C402        C  0.59210302  0.69513278  0.46853599    -0.07600
C403        C  0.56382618  0.74113132  0.46479346     0.13300
C404        C  0.51684115  0.74725618  0.48149921    -0.21100
C405        C  0.50185275  0.71068986  0.00398274    -0.07600
C406        C  0.52509695  0.66214697  0.50496828     0.13300
C407        C  0.50566875  0.61824179  0.52526773    -0.24400
H408        H  0.59317833  0.62035486  0.49072713     0.14500
H409        H  0.50569343  0.78896973  0.98796574     0.14600
C410        C  0.58217177  0.78337516  0.44279732    -0.24400
H411        H  0.53015242  0.58344424  0.52218081     0.04800
H412        H  0.46604107  0.60875434  0.51749444     0.08000
H413        H  0.50436722  0.62259662  0.04766181     0.08000
H414        H  0.58806912  0.76861778  0.41738836     0.08000
H415        H  0.61871958  0.79872814  0.45237851     0.08000
H416        H  0.55385502  0.81549860  0.44155934     0.04800
C417        C  0.95206768  0.69909861  0.42350600    -0.21000
C418        C  0.90426418  0.70786187  0.40824747    -0.07600
C419        C  0.90259128  0.72226711  0.37472399     0.13300
C420        C  0.94875359  0.72738350  0.35720120    -0.21100
C421        C  0.99652380  0.71886482  0.37243573    -0.07600
C422        C  0.99837706  0.70513518  0.40607695     0.13300
C423        C  0.04893529  0.69487294  0.42314992    -0.24400
H424        H  0.95304891  0.68659989  0.44898276     0.14500
H425        H  0.94762692  0.73851426  0.33143049     0.14600
C426        C  0.85217964  0.73030761  0.35704266    -0.24400
H427        H  0.04331309  0.68258772  0.44909664     0.04800
H428        H  0.07219525  0.72993277  0.42342046     0.08000
H429        H  0.07056201  0.66417799  0.40997698     0.08000
H430        H  0.83010016  0.76192313  0.36888880     0.08000
H431        H  0.82949818  0.69486007  0.35802644     0.08000
H432        H  0.85788744  0.74037122  0.33070087     0.04800
C433        C  0.80808029  0.46049338  0.40023627    -0.21000
C434        C  0.79580148  0.50448406  0.38173174    -0.07600
C435        C  0.78726387  0.49975742  0.34735338     0.13300
C436        C  0.79050810  0.45138984  0.33275530    -0.21100
C437        C  0.80065865  0.40757156  0.35155394    -0.07600
C438        C  0.81027434  0.41205794  0.38559534     0.13300
C439        C  0.82454791  0.36614659  0.40623261    -0.24400
H440        H  0.81471534  0.46371055  0.42649993     0.14500
H441        H  0.78486469  0.44757466  0.30640449     0.14600
C442        C  0.77559079  0.54517608  0.32561258    -0.24400
H443        H  0.83164045  0.37665611  0.43234713     0.04800
H444        H  0.86010794  0.34771758  0.39632041     0.08000
H445        H  0.79291646  0.33829412  0.40580324     0.08000
H446        H  0.80550418  0.57442456  0.32892197     0.08000
H447        H  0.73715183  0.56166727  0.33164145     0.08000
H448        H  0.77492098  0.53453671  0.29910811     0.04800
C449        C  0.71005773  0.45195988  0.04392093    -0.21000
C450        C  0.70137493  0.40818595  0.02509306    -0.07600
C451        C  0.69974920  0.41168955  0.99044222     0.13300
C452        C  0.70698427  0.45922180  0.97543700    -0.21100
C453        C  0.71504899  0.50133371  0.49312745    -0.07600
C454        C  0.71898014  0.49915860  0.02895751     0.13300
C455        C  0.69997070  0.54796782  0.54738763    -0.24400
H456        H  0.71049343  0.44894127  0.07058887     0.14500
H457        H  0.70556899  0.46179153  0.94876709     0.14600
C458        C  0.68861318  0.36583124  0.96936971    -0.24400
H459        H  0.72634069  0.53482613  0.07718829     0.04800
H460        H  0.70379636  0.57635801  0.04486867     0.08000
H461        H  0.73718463  0.56781764  0.54778763     0.08000
H462        H  0.65099173  0.34969065  0.97649690     0.08000
H463        H  0.71930213  0.33635502  0.97268266     0.08000
H464        H  0.68692736  0.37578373  0.94277251     0.04800
C465        C  0.52253760  0.83450144  0.11809808    -0.21000
C466        C  0.50067363  0.78668711  0.12324929    -0.07600
C467        C  0.52511123  0.75206130  0.14543002     0.13300
C468        C  0.57072392  0.76628223  0.16139470    -0.21100
C469        C  0.59243392  0.81412087  0.15602884    -0.07600
C470        C  0.56782974  0.84872783  0.13398313     0.13300
C471        C  0.58985534  0.90013865  0.12579396    -0.24400
H472        H  0.50422212  0.86106023  0.10111117     0.14500
H473        H  0.58953161  0.73991544  0.17828770     0.14600
C474        C  0.50471671  0.69954738  0.15176156    -0.24400
H475        H  0.56780794  0.91986448  0.10597499     0.04800
H476        H  0.63018605  0.89541709  0.11712190     0.08000
H477        H  0.58843248  0.92534848  0.14775452     0.08000
H478        H  0.50258361  0.67798554  0.12825977     0.08000
H479        H  0.46606813  0.70257847  0.16319102     0.08000
H480        H  0.52974620  0.67736841  0.16890313     0.04800
C481        C  0.93172858  0.85558280  0.23509926    -0.21000
C482        C  0.90480490  0.81595875  0.21957185    -0.07600
C483        C  0.92580820  0.76583269  0.22092445     0.13300
C484        C  0.97224800  0.75698172  0.23789950    -0.21100
C485        C  0.99797200  0.79644711  0.25414741    -0.07600
C486        C  0.97759327  0.84653334  0.25243644     0.13300
C487        C  0.00437579  0.89087969  0.26821259    -0.24400
H488        H  0.91634361  0.89424852  0.23428198     0.14500
H489        H  0.98783080  0.71840658  0.23938048     0.14600
C490        C  0.90004870  0.72139909  0.20464245    -0.24400
H491        H  0.98494427  0.92779343  0.26233000     0.04800
H492        H  0.04461091  0.89264498  0.25912400     0.08000
H493        H  0.00428736  0.88676516  0.29543125     0.08000
H494        H  0.89519054  0.72900890  0.17788377     0.08000
H495        H  0.86202034  0.71497540  0.21623873     0.08000
H496        H  0.92305179  0.68556946  0.20726789     0.04800
C497        C  0.81374144  0.74247248  0.09272313    -0.21000
C498        C  0.80094412  0.79474507  0.09211301    -0.07600
C499        C  0.79146928  0.81881260  0.06158692     0.13300
C500        C  0.79216682  0.78921245  0.03277638    -0.21100
C501        C  0.80123106  0.73603353  0.03356193    -0.07600
C502        C  0.81411388  0.71283402  0.06387186     0.13300
C503        C  0.82428749  0.65648085  0.06640545    -0.24400
H504        H  0.82077352  0.72413057  0.11633275     0.14500
H505        H  0.78314365  0.80770841  0.00949433     0.14600
C506        C  0.77720450  0.87455860  0.05850697    -0.24400
H507        H  0.83193893  0.64434822  0.09220128     0.04800
H508        H  0.85825072  0.64554460  0.05122129     0.08000
H509        H  0.78997485  0.63630034  0.05756485     0.08000
H510        H  0.77653485  0.89486130  0.08239109     0.08000
H511        H  0.73837663  0.87858116  0.04734208     0.08000
H512        H  0.80543438  0.89362167  0.04229472     0.04800
C513        C  0.69667475  0.81082864  0.31165664    -0.21000
C514        C  0.69947113  0.78274527  0.28242831    -0.07600
C515        C  0.69846226  0.72867505  0.28391567     0.13300
C516        C  0.69836402  0.70422580  0.31472915    -0.21100
C517        C  0.70054699  0.73231093  0.34398516    -0.07600
C518        C  0.69786567  0.78645600  0.34244992     0.13300
C519        C  0.69670492  0.81909673  0.37309628    -0.24400
H520        H  0.69679802  0.85222729  0.31041569     0.14500
H521        H  0.69973978  0.66281910  0.31593104     0.14600
C522        C  0.69769785  0.69639901  0.25313369    -0.24400
H523        H  0.68970717  0.85996848  0.36716552     0.04800
H524        H  0.73409516  0.81644835  0.38613768     0.08000
H525        H  0.66538503  0.80667864  0.38968931     0.08000
H526        H  0.73451366  0.69956710  0.23953010     0.08000
H527        H  0.66531610  0.70884750  0.23706008     0.08000
H528        H  0.69261991  0.65542223  0.25897968     0.04800
C529        C  0.78103511  0.06654880  0.29589994    -0.21000
C530        C  0.78516221  0.11109295  0.27694579    -0.07600
C531        C  0.78464260  0.10789530  0.24226595     0.13300
C532        C  0.78117763  0.05985781  0.22739901    -0.21100
C533        C  0.77752958  0.01507443  0.24633821    -0.07600
C534        C  0.77670061  0.01856237  0.28107904     0.13300
C535        C  0.77340549  0.97195551  0.30267212    -0.24400
H536        H  0.78228955  0.06933539  0.32257443     0.14500
H537        H  0.78074716  0.05733218  0.20070172     0.14600
C538        C  0.78988172  0.15461233  0.22093280    -0.24400
H539        H  0.77684824  0.98169645  0.32922495     0.04800
H540        H  0.80499608  0.94463265  0.29637951     0.08000
H541        H  0.73576902  0.95342065  0.29923900     0.08000
H542        H  0.82632621  0.17411558  0.22676566     0.08000
H543        H  0.75696424  0.18121809  0.22539954     0.08000
H544        H  0.79025881  0.14485812  0.19427486     0.04800
C545        C  0.67717701  0.10742550  0.13406157    -0.21000
C546        C  0.70260793  0.11454874  0.10409729    -0.07600
C547        C  0.73047973  0.07398568  0.08963891     0.13300
C548        C  0.73226727  0.02661310  0.10556759    -0.21100
C549        C  0.70654559  0.01857696  0.13572187    -0.07600
C550        C  0.67856183  0.06006990  0.15017847     0.13300
C551        C  0.64978026  0.05560712  0.18234340    -0.31600
H552        H  0.65487564  0.13885526  0.14439481     0.14500
H553        H  0.75433134  0.99582559  0.09434546     0.14600
C554        C  0.75853158  0.08094462  0.05744307    -0.24400
H555        H  0.62944721  0.09172988  0.18904808     0.04800
H556        H  0.67689678  0.04646478  0.20267159     0.08000
H557        H  0.62038552  0.02558412  0.18033409     0.08000
H558        H  0.78695776  0.11179666  0.06004225     0.08000
H559        H  0.73081977  0.09138087  0.03767047     0.08000
H560        H  0.77944271  0.04561804  0.04978367     0.04800
O561        O  0.84654469  0.87224902  0.69854637    -0.82500
C562        C  0.64249608  0.82448425  0.67020676     0.96800
O563        O  0.67688783  0.79084785  0.67633273    -0.71600
O564        O  0.75856721  0.79531255  0.64072853    -0.75200
Al565      Al  0.74961663  0.79725604  0.68614781     1.49000
C566        C  0.79256778  0.81613454  0.62397742     0.92100
O567        O  0.75174002  0.93528043  0.64138389    -0.81500
O568        O  0.73829942  0.93018397  0.73887075    -0.75000
Al569      Al  0.79751061  0.90149958  0.67059256     1.90100
O570        O  0.69516500  0.95564236  0.67933750    -0.74100
O571        O  0.68266010  0.84636903  0.74177474    -0.73900
O572        O  0.64730801  0.86957591  0.67981813    -0.79600
O573        O  0.74070188  0.78765385  0.73112836    -0.77800
O574        O  0.74734390  0.86503517  0.68841348    -1.13900
O575        O  0.82299550  0.79217987  0.69562011    -0.73100
C576        C  0.85493149  0.82573350  0.70444535     0.97600
C577        C  0.71745796  0.96553363  0.65237496     0.94000
Al578      Al  0.69499096  0.89732017  0.70830815     1.55600
O579        O  0.81529726  0.85479669  0.63489127    -0.77800
C580        C  0.70679954  0.80602582  0.74967320     0.98200
C581        C  0.76927475  0.96331196  0.72895882     0.93000
O582        O  0.79225588  0.95736682  0.70162512    -0.83100
O583        O  0.65524593  0.64150996  0.94446043    -0.82500
C584        C  0.86100331  0.69284047  0.92603259     0.96800
O585        O  0.82532958  0.72543392  0.93156502    -0.71600
O586        O  0.74702697  0.72374767  0.89347074    -0.75200
Al587      Al  0.75210521  0.71802651  0.93886386     1.49000
C588        C  0.71433185  0.70497017  0.87487362     0.92100
O589        O  0.75641831  0.58472368  0.88954735    -0.81500
O590        O  0.75933219  0.58278183  0.98775982    -0.75000
Al591      Al  0.70730622  0.61520673  0.91781929     1.90100
O592        O  0.80796965  0.55935848  0.92928709    -0.74100
O593        O  0.81413014  0.66506743  0.49420034    -0.73900
O594        O  0.85636456  0.64665630  0.93360086    -0.79600
O595        O  0.75691400  0.72418457  0.98422086    -0.77800
O596        O  0.75514979  0.65044313  0.93885103    -1.13900
O597        O  0.67806983  0.72169207  0.94619688    -0.73100
C598        C  0.64581102  0.68706078  0.95237439     0.97600
C599        C  0.78867467  0.55287803  0.90084801     0.94000
Al600      Al  0.80589284  0.61698691  0.95970941     1.55600
O601        O  0.69231933  0.66437103  0.88307963    -0.77800
C602        C  0.78872805  0.70421698  0.50312624     0.98200
C603        C  0.72808264  0.55108254  0.97616816     0.93000
O604        O  0.70954896  0.55756228  0.94754297    -0.83100
O605        O  0.05123996  0.80204267  0.80483760    -0.82500
C606        C  0.18372751  0.64410147  0.82945901     0.96800
O607        O  0.13761213  0.65123691  0.82128649    -0.71600
O608        O  0.05247169  0.70499308  0.82656517    -0.75200
Al609      Al  0.10813451  0.70201971  0.79487291     1.49000
C610        C  0.04794621  0.72584787  0.85467127     0.92100
O611        O  0.16127943  0.81772901  0.86728620    -0.81500
O612        O  0.21846727  0.82155594  0.80345893    -0.75000
Al613      Al  0.11060699  0.80302747  0.83368617     1.90100
O614        O  0.21916873  0.75854095  0.85893152    -0.74100
O615        O  0.21831713  0.73951017  0.76871726    -0.73900
O616        O  0.21766369  0.67719355  0.82382515    -0.79600
O617        O  0.15540312  0.68781489  0.75904006    -0.77800
O618        O  0.14419546  0.75138813  0.81397100    -1.13900
O619        O  0.07363548  0.74796248  0.76625064    -0.73100
C620        C  0.04313613  0.78196857  0.77695952     0.97600
C621        C  0.20140382  0.79391004  0.87627364     0.94000
Al622      Al  0.21254594  0.74936814  0.81371743     1.55600
O623        O  0.07932765  0.75882718  0.86415990    -0.77800
C624        C  0.19643979  0.70881171  0.75013825     0.98200
C625        C  0.18487260  0.85604129  0.79722579     0.93000
O626        O  0.13841115  0.85108794  0.80510835    -0.83100
O627        O  0.44596440  0.70088846  0.55044209    -0.82500
C628        C  0.31730222  0.85968482  0.57905296     0.96800
O629        O  0.36347971  0.85072738  0.57151594    -0.71600
O630        O  0.44869327  0.79718752  0.57245705    -0.75200
Al631      Al  0.38997448  0.80150232  0.54310573     1.49000
C632        C  0.45553624  0.77617536  0.60034408     0.92100
O633        O  0.34063194  0.68764503  0.61645700    -0.81500
O634        O  0.27967482  0.68164187  0.55477793    -0.75000
Al635      Al  0.38941746  0.70063160  0.58139819     1.90100
O636        O  0.28201208  0.74685641  0.60886461    -0.74100
O637        O  0.28035658  0.76202725  0.51812173    -0.73900
O638        O  0.28266840  0.82758144  0.57232551    -0.79600
O639        O  0.34279898  0.81783300  0.01043550    -0.77800
O640        O  0.35505299  0.75222516  0.56273675    -1.13900
O641        O  0.42068952  0.75572316  0.51281860    -0.73100
C642        C  0.45147063  0.72109129  0.52231128     0.97600
C643        C  0.30127712  0.71218026  0.62624018     0.94000
Al644      Al  0.28684090  0.75437773  0.56346032     1.55600
O645        O  0.42400444  0.74397159  0.61073478    -0.77800
C646        C  0.30158870  0.79731789  0.00130657     0.98200
C647        C  0.31281245  0.64730584  0.54729138     0.93000
O648        O  0.35950301  0.65341152  0.55382514    -0.83100
O649        O  0.14836183  0.13588491  0.69891307    -0.82500
C650        C  0.35562638  0.18377997  0.67742283     0.96800
O651        O  0.32065351  0.21691004  0.68387695    -0.71600
O652        O  0.24155336  0.21602312  0.64541688    -0.75200
Al653      Al  0.24641796  0.21078926  0.69098346     1.49000
C654        C  0.20688287  0.19863255  0.62755746     0.92100
O655        O  0.24486261  0.07828459  0.64119105    -0.81500
O656        O  0.25239735  0.07568531  0.73957416    -0.75000
Al657      Al  0.19823687  0.10915154  0.67082083     1.90100
O658        O  0.29883072  0.05249085  0.67964497    -0.74100
O659        O  0.31025321  0.15847620  0.74631730    -0.73900
O660        O  0.34864750  0.13768864  0.68425935    -0.79600
O661        O  0.25119373  0.21630827  0.73654778    -0.77800
O662        O  0.24781968  0.14331236  0.69093796    -1.13900
O663        O  0.17175884  0.21615390  0.69812463    -0.73100
C664        C  0.13930461  0.18200477  0.70534671     0.97600
C665        C  0.27898953  0.04727572  0.65120553     0.94000
Al666      Al  0.29846912  0.10904110  0.71092768     1.55600
O667        O  0.18261553  0.15970400  0.63672033    -0.77800
C668        C  0.28569261  0.19854226  0.75480841     0.98200
C669        C  0.22055633  0.04430526  0.72850151     0.93000
O670        O  0.20122446  0.05051443  0.70005379    -0.83100
O671        O  0.33939696  0.36765338  0.94966829    -0.82500
C672        C  0.13384241  0.31939840  0.92530251     0.96800
O673        O  0.16837559  0.28599041  0.93222729    -0.71600
O674        O  0.25177897  0.28340523  0.89731345    -0.75200
Al675      Al  0.24161093  0.29177207  0.94254404     1.49000
C676        C  0.28525777  0.30258171  0.87929886     0.92100
O677        O  0.24307845  0.42372471  0.89128875    -0.81500
O678        O  0.23283494  0.42935319  0.98954969    -0.75000
Al679      Al  0.28950242  0.39350640  0.92141971     1.90100
O680        O  0.18917885  0.45125848  0.92921036    -0.74100
O681        O  0.17848967  0.34846108  0.49593385    -0.73900
O682        O  0.13939024  0.36529645  0.93329276    -0.79600
O683        O  0.23191806  0.28693792  0.98796347    -0.77800
O684        O  0.23977900  0.35954944  0.94157556    -1.13900
O685        O  0.31539413  0.28761056  0.95274744    -0.73100
C686        C  0.34799208  0.32236043  0.95828562     0.97600
C687        C  0.21007018  0.45603016  0.90105726     0.94000
Al688      Al  0.18812139  0.39481008  0.96052443     1.55600
O689        O  0.30626871  0.34354517  0.88769389    -0.77800
C690        C  0.20287379  0.30897688  0.50528471     0.98200
C691        C  0.26639819  0.45919154  0.97857991     0.93000
O692        O  0.28599979  0.45161780  0.95038443    -0.83100
O693        O  0.92488010  0.31768276  0.83303105    -0.82500
C694        C  0.79634835  0.15691713  0.79311853     0.96800
O695        O  0.83342908  0.15341145  0.81312878    -0.71600
O696        O  0.92058323  0.18866809  0.78867739    -0.75200
Al697      Al  0.88225111  0.20113629  0.82852120     1.49000
C698        C  0.94629165  0.22107061  0.77281001     0.92100
O699        O  0.84510519  0.30186362  0.75347981    -0.81500
O700        O  0.78232706  0.31839607  0.84208850    -0.75000
Al701      Al  0.88261981  0.30725056  0.79449138     1.90100
O702        O  0.76956992  0.29897378  0.77654345    -0.74100
O703        O  0.77205996  0.21970979  0.85282170    -0.73900
O704        O  0.77419497  0.19943246  0.78733547    -0.79600
O705        O  0.84970804  0.20687389  0.87106892    -0.77800
O706        O  0.84898921  0.25558735  0.81250981    -1.13900
O707        O  0.93740105  0.23729111  0.84640361    -0.73100
C708        C  0.94957154  0.28331871  0.84868844     0.97600
C709        C  0.79657738  0.30377788  0.75112669     0.94000
Al710      Al  0.78048136  0.25885727  0.81453211     1.55600
O711        O  0.93514068  0.26768393  0.77494228    -0.77800
C712        C  0.80181633  0.20899126  0.87614745     0.98200
C713        C  0.80547219  0.35883351  0.83432156     0.93000
O714        O  0.83756265  0.35895797  0.81095776    -0.83100
O715        O  0.56949716  0.19354704  0.58837249    -0.82500
C716        C  0.68730955  0.35903768  0.54230996     0.96800
O717        O  0.65121250  0.36129079  0.56319282    -0.71600
O718        O  0.56567146  0.32001219  0.54065962    -0.75200
Al719      Al  0.60569646  0.31148223  0.58020918     1.49000
C720        C  0.54200425  0.28512085  0.52573508     0.92100
O721        O  0.64720138  0.21322394  0.00479327    -0.81500
O722        O  0.71384968  0.20120695  0.59365731    -0.75000
Al723      Al  0.60989804  0.20362220  0.54895620     1.90100
O724        O  0.72152079  0.21819647  0.52754408    -0.74100
O725        O  0.71774929  0.30076035  0.60286866    -0.73900
O726        O  0.71129900  0.31746955  0.53679174    -0.79600
O727        O  0.63982663  0.30838093  0.62215084    -0.77800
O728        O  0.64141129  0.25816273  0.56474199    -1.13900
O729        O  0.55303252  0.27355160  0.59977593    -0.73100
C730        C  0.54315619  0.22717761  0.60360939     0.97600
C731        C  0.69553107  0.21240377  0.00177452     0.94000
Al732      Al  0.71011447  0.25927708  0.56516643     1.55600
O733        O  0.55542794  0.23931340  0.52931263    -0.77800
C734        C  0.68783758  0.30825871  0.62670659     0.98200
C735        C  0.69232185  0.15931158  0.58768159     0.93000
O736        O  0.65795824  0.15567606  0.56600754    -0.83100
C737        C  0.77637044  0.20975024  0.96868554    -0.21000
C738        C  0.72235624  0.20426585  0.96953677    -0.07600
C739        C  0.69651412  0.19378838  0.93972579     0.13300
C740        C  0.72471573  0.19176547  0.91020013    -0.21100
C741        C  0.77799149  0.20107884  0.90912199    -0.07600
C742        C  0.80436874  0.20867307  0.93904254     0.13300
C743        C  0.86143911  0.21780701  0.94005391    -0.24400
H744        H  0.79704136  0.21695351  0.99132558     0.14500
H745        H  0.70428117  0.18477277  0.88742011     0.14600
C746        C  0.63929274  0.18568270  0.93834284    -0.24400
H747        H  0.87544227  0.22339235  0.96563663     0.04800
H748        H  0.87064660  0.25259289  0.92578274     0.08000
H749        H  0.88255412  0.18442144  0.92955685     0.08000
H750        H  0.61837375  0.22089702  0.94616832     0.08000
H751        H  0.62885121  0.15342983  0.95460866     0.08000
H752        H  0.62619192  0.17642792  0.91301715     0.04800
C753        C  0.76039804  0.33565212  0.66192237    -0.21000
C754        C  0.71118313  0.31417528  0.65981652    -0.07600
C755        C  0.68983640  0.29157067  0.68814484     0.13300
C756        C  0.71871309  0.28983541  0.71730930    -0.21100
C757        C  0.76882216  0.30949794  0.71917940    -0.07600
C758        C  0.78947564  0.33362360  0.69114250     0.13300
C759        C  0.84163161  0.35766647  0.69182137    -0.24400
H760        H  0.77691586  0.35302642  0.64011568     0.14500
H761        H  0.70236265  0.27116887  0.73869316     0.14600
C762        C  0.63797456  0.26665218  0.68745641    -0.24400
H763        H  0.85054635  0.37693460  0.66815507     0.04800
H764        H  0.87187090  0.32805944  0.69606958     0.08000
H765        H  0.84286820  0.38665282  0.71174852     0.08000
H766        H  0.63793622  0.23575564  0.66872546     0.08000
H767        H  0.60762894  0.29542558  0.68145575     0.08000
H768        H  0.62807231  0.24950389  0.71163950     0.04800
C769        C  0.41282037  0.34757624  0.99925222    -0.21000
C770        C  0.39742029  0.31222901  0.97530595    -0.07600
C771        C  0.43199917  0.27315678  0.96560467     0.13300
C772        C  0.48054612  0.26963298  0.98074818    -0.21100
C773        C  0.49532147  0.29531195  0.50560586    -0.07600
C774        C  0.48482900  0.34201110  0.48967851     0.13300
C775        C  0.52247550  0.38507157  0.49013389    -0.24400
H776        H  0.43063155  0.38454783  0.46064393     0.14500
H777        H  0.50671003  0.23889801  0.97352169     0.14600
C778        C  0.41840102  0.23609681  0.93876280    -0.24400
H779        H  0.50905246  0.41774513  0.47481065     0.04800
H780        H  0.56021446  0.37165742  0.48027466     0.08000
H781        H  0.52730606  0.39930435  0.51568679     0.08000
H782        H  0.40913637  0.25715159  0.91570736     0.08000
H783        H  0.38466834  0.21362378  0.94642790     0.08000
H784        H  0.45060970  0.20897437  0.93342081     0.04800
C785        C  0.04234334  0.33903176  0.91127888    -0.21000
C786        C  0.08591519  0.30669654  0.90709343    -0.07600
C787        C  0.08387881  0.26743014  0.88325579     0.13300
C788        C  0.03890151  0.26173781  0.86455848    -0.21100
C789        C  0.99587021  0.29443693  0.86852364    -0.07600
C790        C  0.99748788  0.33336841  0.89236460     0.13300
C791        C  0.95150052  0.36754402  0.89884447    -0.24400
H792        H  0.04336500  0.36920866  0.92950349     0.14500
H793        H  0.03751186  0.23172467  0.84621559     0.14600
C794        C  0.12928877  0.23259687  0.87628242    -0.24400
H795        H  0.95896371  0.39534108  0.91885964     0.04800
H796        H  0.91859716  0.34397172  0.90646659     0.08000
H797        H  0.94122987  0.38931554  0.87627118     0.08000
H798        H  0.13921301  0.21015381  0.89864250     0.08000
H799        H  0.16272071  0.25542504  0.86849989     0.08000
H800        H  0.12109141  0.20514955  0.85618252     0.04800
C801        C  0.43962311  0.15664925  0.65236659    -0.21000
C802        C  0.40544129  0.19700584  0.66103731    -0.07600
C803        C  0.41944704  0.24726705  0.65281180     0.13300
C804        C  0.46525551  0.25520310  0.63520873    -0.21100
C805        C  0.49803623  0.21459373  0.62501385    -0.07600
C806        C  0.48516243  0.16453887  0.63443824     0.13300
C807        C  0.51873930  0.11900368  0.62588184    -0.24400
H808        H  0.43030557  0.11796047  0.65907086     0.14500
H809        H  0.47466409  0.29394898  0.62861266     0.14600
C810        C  0.38668798  0.29301829  0.66215017    -0.24400
H811        H  0.50367610  0.08317914  0.63647827     0.04800
H812        H  0.55798003  0.12430492  0.63586156     0.08000
H813        H  0.52050978  0.11401700  0.59873044     0.08000
H814        H  0.38158940  0.29433309  0.68932176     0.08000
H815        H  0.34868327  0.29111408  0.64983186     0.08000
H816        H  0.40453053  0.32932120  0.65450866     0.04800
C817        C  0.00897159  0.24045639  0.72827218    -0.21000
C818        C  0.99277199  0.20673759  0.75322509    -0.07600
C819        C  0.02568513  0.16559359  0.76223237     0.13300
C820        C  0.07339246  0.15966951  0.74639168    -0.21100
C821        C  0.08989027  0.19392826  0.72206272    -0.07600
C822        C  0.05706069  0.23462390  0.71265411     0.13300
C823        C  0.07194179  0.27106158  0.68571142    -0.24400
H824        H  0.98414067  0.27228795  0.72131241     0.14500
H825        H  0.09860116  0.12813072  0.75342196     0.14600
C826        C  0.01217628  0.12889185  0.78937565    -0.24400
H827        H  0.04090125  0.29959989  0.68067606     0.04800
H828        H  0.07983311  0.24966189  0.66256609     0.08000
H829        H  0.10682877  0.29200671  0.69304720     0.08000
H830        H  0.97665834  0.10835123  0.78283115     0.08000
H831        H  0.00637798  0.14990206  0.81289260     0.08000
H832        H  0.04310938  0.09986180  0.79345486     0.04800
C833        C  0.18429812  0.23111143  0.53711757    -0.21000
C834        C  0.19291810  0.28401476  0.53734339    -0.07600
C835        C  0.20021302  0.30884789  0.56782529     0.13300
C836        C  0.20051901  0.27990894  0.59689752    -0.21100
C837        C  0.19519026  0.22657128  0.59653460    -0.07600
C838        C  0.18544621  0.20203140  0.56629789     0.13300
C839        C  0.17963391  0.14509566  0.56436780    -0.24400
H840        H  0.17911198  0.21201256  0.51365021     0.14500
H841        H  0.20769777  0.29909168  0.62011956     0.14600
C842        C  0.21166660  0.36479778  0.57076997    -0.24400
H843        H  0.17386796  0.13207332  0.53859504     0.04800
H844        H  0.14575757  0.13346762  0.57905270     0.08000
H845        H  0.21473598  0.12570934  0.57411787     0.08000
H846        H  0.21263179  0.38482827  0.54684522     0.08000
H847        H  0.24979215  0.36942798  0.58261188     0.08000
H848        H  0.18187385  0.38373604  0.58636359     0.04800
C849        C  0.30453701  0.19838766  0.81519018    -0.21000
C850        C  0.29612210  0.22609174  0.78611546    -0.07600
C851        C  0.29366943  0.28030827  0.78781102     0.13300
C852        C  0.29486546  0.30472920  0.81864123    -0.21100
C853        C  0.29804738  0.27660500  0.84783982    -0.07600
C854        C  0.30576493  0.22297620  0.84601486     0.13300
C855        C  0.31541684  0.19046161  0.87607536    -0.24400
H856        H  0.30794560  0.15728925  0.81406824     0.14500
H857        H  0.28990371  0.34568777  0.82004048     0.14600
C858        C  0.28936926  0.31308117  0.75732775    -0.24400
H859        H  0.35208282  0.16868648  0.87289897     0.04800
H860        H  0.28358850  0.16322709  0.87917912     0.08000
H861        H  0.31899121  0.21309205  0.89897335     0.08000
H862        H  0.25132340  0.30842473  0.74550772     0.08000
H863        H  0.32045070  0.30255030  0.73968572     0.08000
H864        H  0.29306274  0.35419715  0.76321800     0.04800
C865        C  0.25028254  0.97929867  0.61333550    -0.21000
C866        C  0.29072389  0.00141893  0.63108010    -0.07600
C867        C  0.33974774  0.97768406  0.63057538     0.13300
C868        C  0.34651745  0.93168773  0.61343762    -0.21100
C869        C  0.30574983  0.90844542  0.59650716    -0.07600
C870        C  0.25705242  0.93319460  0.59608123     0.13300
C871        C  0.21239285  0.91213066  0.57710110    -0.24400
H872        H  0.21255379  0.99764049  0.61361743     0.14500
H873        H  0.38429282  0.91344601  0.61361584     0.14600
C874        C  0.38549295  0.00128914  0.64707974    -0.24400
H875        H  0.17808519  0.93787822  0.57829126     0.04800
H876        H  0.20124559  0.87482999  0.58755027     0.08000
H877        H  0.22315350  0.90746501  0.55074915     0.08000
H878        H  0.38001682  0.00223650  0.67419313     0.08000
H879        H  0.39051928  0.04058685  0.63763202     0.08000
H880        H  0.42158963  0.97937373  0.64206012     0.04800
C881        C  0.24147134  0.54262083  0.50106474    -0.21000
C882        C  0.27943777  0.50594568  0.99713432    -0.07600
C883        C  0.33017770  0.51562525  0.50990190     0.13300
C884        C  0.33828838  0.56114521  0.52696181    -0.21100
C885        C  0.29895489  0.59869868  0.53069270    -0.07600
C886        C  0.24983630  0.58924722  0.51709839     0.13300
C887        C  0.20651588  0.62811373  0.51828931    -0.24400
H888        H  0.20593594  0.50902828  0.02195627     0.14500
H889        H  0.37616428  0.56746662  0.53698840     0.14600
C890        C  0.37374457  0.47748825  0.50569749    -0.24400
H891        H  0.17157696  0.61436546  0.50558283     0.04800
H892        H  0.21836919  0.66369338  0.50577100     0.08000
H893        H  0.19588544  0.63635170  0.54428435     0.08000
H894        H  0.38201142  0.47183072  0.47907179     0.08000
H895        H  0.37912341  0.46992190  0.97921194     0.08000
H896        H  0.40956662  0.49043018  0.51773141     0.04800
C897        C  0.19561725  0.94941935  0.79749540    -0.21000
C898        C  0.19883525  0.90323403  0.78010824    -0.07600
C899        C  0.20736313  0.90371596  0.74577927     0.13300
C900        C  0.21305283  0.95057077  0.72958583    -0.21100
C901        C  0.21067706  0.99691005  0.74699405    -0.07600
C902        C  0.20206753  0.99635324  0.78141930     0.13300
C903        C  0.19769665  0.04504166  0.80103449    -0.24400
H904        H  0.18741158  0.94868454  0.82367007     0.14500
H905        H  0.22009491  0.95100611  0.70328014     0.14600
C906        C  0.20904242  0.85492118  0.72613454    -0.24400
H907        H  0.18794924  0.03759029  0.82724449     0.04800
H908        H  0.16697139  0.06998480  0.79046679     0.08000
H909        H  0.23477033  0.06532735  0.80057276     0.08000
H910        H  0.17216422  0.83461357  0.72896823     0.08000
H911        H  0.24102243  0.83002824  0.73507077     0.08000
H912        H  0.21525031  0.86215918  0.69945353     0.04800
C913        C  0.19909729  0.81490301  0.93597501    -0.21000
C914        C  0.22820355  0.80599636  0.90743399    -0.07600
C915        C  0.28274118  0.80449317  0.90968808     0.13300
C916        C  0.30632344  0.80693841  0.94077699    -0.21100
C917        C  0.27681689  0.81030827  0.96956471    -0.07600
C918        C  0.22273014  0.81728743  0.96702488     0.13300
C919        C  0.18330470  0.81322292  0.49734452    -0.24400
H920        H  0.15763085  0.81754100  0.93429669     0.14500
H921        H  0.34763544  0.80248017  0.94273967     0.14600
C922        C  0.31653593  0.79972002  0.87953948    -0.24400
H923        H  0.15552672  0.84550598  0.49440603     0.04800
H924        H  0.20465215  0.82031391  0.52044301     0.08000
H925        H  0.16163768  0.77733350  0.49987015     0.08000
H926        H  0.30606565  0.83000254  0.86151150     0.08000
H927        H  0.31231353  0.76170404  0.86801152     0.08000
H928        H  0.35782604  0.80383631  0.88576845     0.04800
C929        C  0.27518113  0.69419408  0.71733785    -0.21000
C930        C  0.22113500  0.69832522  0.71799833    -0.07600
C931        C  0.19375442  0.70058089  0.68807368     0.13300
C932        C  0.22133647  0.70159867  0.65831015    -0.21100
C933        C  0.27550703  0.70074079  0.65778637    -0.07600
C934        C  0.30275295  0.69556518  0.68761677     0.13300
C935        C  0.36066334  0.69522774  0.68844038    -0.24400
H936        H  0.29611107  0.69249290  0.74044980     0.14500
H937        H  0.20048971  0.70539450  0.63525417     0.14600
C938        C  0.13594786  0.70546786  0.68747088    -0.24400
H939        H  0.37563263  0.69277451  0.71403901     0.04800
H940        H  0.37511786  0.73083253  0.67720709     0.08000
H941        H  0.37603028  0.66183512  0.67455835     0.08000
H942        H  0.12340155  0.74034547  0.70098592     0.08000
H943        H  0.11878498  0.67155275  0.69923192     0.08000
H944        H  0.12094555  0.70822334  0.66188986     0.04800
C945        C  0.19581255  0.55038706  0.83009612    -0.21000
C946        C  0.19634548  0.59674675  0.84727329    -0.07600
C947        C  0.19946894  0.59660434  0.88196928     0.13300
C948        C  0.20169230  0.54990826  0.89880697    -0.21100
C949        C  0.20182548  0.50328733  0.88171496    -0.07600
C950        C  0.19954410  0.50354136  0.84683890     0.13300
C951        C  0.19942783  0.45470224  0.82724815    -0.24400
H952        H  0.19189377  0.55093796  0.80345857     0.14500
H953        H  0.20467352  0.54982710  0.92550741     0.14600
C954        C  0.19965326  0.64580576  0.90118947    -0.24400
H955        H  0.19398969  0.46202777  0.80049423     0.04800
H956        H  0.16762932  0.43026378  0.83580179     0.08000
H957        H  0.23665646  0.43394893  0.83019974     0.08000
H958        H  0.16438115  0.66864753  0.89569743     0.08000
H959        H  0.23383875  0.66814726  0.89418834     0.08000
H960        H  0.20111640  0.63896364  0.92820449     0.04800
C961        C  0.57340232  0.65678142  0.98638108    -0.21000
C962        C  0.59651116  0.69781353  0.96989661    -0.07600
C963        C  0.57166498  0.74613952  0.97054800     0.13300
C964        C  0.52444476  0.75168734  0.98721466    -0.21100
C965        C  0.49753969  0.70886568  0.50213437    -0.07600
C966        C  0.52690734  0.66255555  0.00355087     0.13300
C967        C  0.50473733  0.61675797  0.02057141    -0.24400
H968        H  0.59235564  0.61959977  0.98636879     0.14500
H969        H  0.49582133  0.78316779  0.47919263     0.14600
C970        C  0.59408729  0.79185747  0.95366082    -0.24400
H971        H  0.52777610  0.58152737  0.01562259     0.04800
H972        H  0.46504852  0.61040458  0.01164079     0.08000
H973        H  0.50602868  0.62811537  0.55186205     0.08000
H974        H  0.59976459  0.78366373  0.92703639     0.08000
H975        H  0.63141252  0.80144636  0.96515045     0.08000
H976        H  0.56843702  0.82599380  0.95579423     0.04800
C977        C  0.95592355  0.69708116  0.92464609    -0.21000
C978        C  0.90856762  0.70742900  0.90917167    -0.07600
C979        C  0.90760538  0.72337082  0.87595499     0.13300
C980        C  0.95402974  0.72792011  0.85880224    -0.21100
C981        C  0.00128901  0.71746190  0.87417303    -0.07600
C982        C  0.00255867  0.70271422  0.90759439     0.13300
C983        C  0.05268860  0.69094586  0.92476029    -0.24400
H984        H  0.95625921  0.68372000  0.94988659     0.14500
H985        H  0.95353139  0.74005412  0.83328581     0.14600
C986        C  0.85771017  0.73358246  0.85810846    -0.24400
H987        H  0.04656283  0.67870291  0.95065885     0.04800
H988        H  0.07701337  0.72529198  0.92514003     0.08000
H989        H  0.07332320  0.65966105  0.91155930     0.08000
H990        H  0.83624735  0.76516408  0.87043512     0.08000
H991        H  0.83412686  0.69870355  0.85819204     0.08000
H992        H  0.86411303  0.74478202  0.83203348     0.04800
C993        C  0.79784407  0.45878119  0.90192427    -0.21000
C994        C  0.79684542  0.50398754  0.88320593    -0.07600
C995        C  0.79648184  0.50074188  0.84841834     0.13300
C996        C  0.79721757  0.45260770  0.83339596    -0.21100
C997        C  0.79698702  0.40747322  0.85206151    -0.07600
C998        C  0.79695260  0.41056991  0.88680770     0.13300
C999        C  0.79678777  0.36334826  0.90797880    -0.24400
H1000       H  0.79748187  0.46118294  0.92858736     0.14500
H1001       H  0.79815421  0.45011093  0.80671886     0.14600
C1002       C  0.79681125  0.54765745  0.82690600    -0.24400
H1003       H  0.79912846  0.37271578  0.93463943     0.04800
H1004       H  0.82999119  0.33816660  0.90162347     0.08000
H1005       H  0.76075807  0.34223127  0.90382700     0.08000
H1006       H  0.82964691  0.57198306  0.83375355     0.08000
H1007       H  0.76025169  0.56963341  0.82969275     0.08000
H1008       H  0.80081481  0.53773025  0.80038881     0.04800
C1009       C  0.69753940  0.45261722  0.54264982    -0.21000
C1010       C  0.70058082  0.40661271  0.52486908    -0.07600
C1011       C  0.71072635  0.40802965  0.49064902     0.13300
C1012       C  0.71729810  0.45542623  0.47520750    -0.21100
C1013       C  0.71709822  0.50316188  0.99416766    -0.07600
C1014       C  0.70495719  0.49986120  0.52728912     0.13300
C1015       C  0.73045077  0.54404868  0.05059514    -0.24400
H1016       H  0.68900600  0.45157963  0.56881392     0.14500
H1017       H  0.72479569  0.45662872  0.44891518     0.14600
C1018       C  0.71280611  0.36010996  0.47010021    -0.24400
H1019       H  0.68904821  0.53992059  0.57333292     0.04800
H1020       H  0.66991937  0.57343040  0.53654526     0.08000
H1021       H  0.77084989  0.55508167  0.04645241     0.08000
H1022       H  0.67613646  0.33935272  0.47254737     0.08000
H1023       H  0.74521486  0.33513588  0.47829985     0.08000
H1024       H  0.71869780  0.36865374  0.44355741     0.04800
C1025       C  0.52595448  0.83456043  0.61404379    -0.21000
C1026       C  0.50242116  0.78767664  0.61959676    -0.07600
C1027       C  0.52667827  0.75171385  0.64096850     0.13300
C1028       C  0.57282282  0.76441133  0.65671405    -0.21100
C1029       C  0.59539591  0.81185132  0.65175031    -0.07600
C1030       C  0.57200055  0.84716654  0.62964148     0.13300
C1031       C  0.59598613  0.89762124  0.62127617    -0.24400
H1032       H  0.50815450  0.86173424  0.59723086     0.14500
H1033       H  0.59113022  0.73731965  0.67336427     0.14600
C1034       C  0.50554794  0.69927888  0.64663522    -0.24400
H1035       H  0.57483441  0.91779352  0.60124445     0.04800
H1036       H  0.63624224  0.89133325  0.61282062     0.08000
H1037       H  0.59528534  0.92318747  0.64306221     0.08000
H1038       H  0.50204427  0.67894207  0.62275070     0.08000
H1039       H  0.46746206  0.70228670  0.65885706     0.08000
H1040       H  0.53094841  0.67580939  0.66282371     0.04800
C1041       C  0.92038367  0.84783942  0.74584423    -0.21000
C1042       C  0.90256150  0.81220015  0.72282232    -0.07600
C1043       C  0.93152680  0.76698538  0.71737249     0.13300
C1044       C  0.97772176  0.75906953  0.73481062    -0.21100
C1045       C  0.99552235  0.79471287  0.75802823    -0.07600
C1046       C  0.96593264  0.83972706  0.76366041     0.13300
C1047       C  0.98188189  0.88001125  0.78797240    -0.24400
H1048       H  0.89798361  0.88247224  0.75025058     0.14500
H1049       H  0.99968616  0.72413319  0.73059400     0.14600
C1050       C  0.91478497  0.72759736  0.69275106    -0.24400
H1051       H  0.95566555  0.91387946  0.78740952     0.04800
H1052       H  0.02118644  0.89310870  0.78200840     0.08000
H1053       H  0.98080957  0.86454296  0.81342762     0.08000
H1054       H  0.91043087  0.74532655  0.66802700     0.08000
H1055       H  0.87763093  0.71123671  0.70055810     0.08000
H1056       H  0.94321888  0.69568255  0.69063824     0.04800
C1057       C  0.81953763  0.74056092  0.59198794    -0.21000
C1058       C  0.80523771  0.79255597  0.59189012    -0.07600
C1059       C  0.79213465  0.81620986  0.56178243     0.13300
C1060       C  0.79008009  0.78644138  0.53311740    -0.21100
C1061       C  0.80052580  0.73350075  0.53354867    -0.07600
C1062       C  0.81776693  0.71077193  0.56316132     0.13300
C1063       C  0.83129846  0.65486480  0.56505327    -0.24400
H1064       H  0.82936410  0.72248957  0.61527160     0.14500
H1065       H  0.77816933  0.80467890  0.51028156     0.14600
C1066       C  0.77691977  0.87176805  0.55917327    -0.24400
H1067       H  0.84238933  0.64320741  0.59042993     0.04800
H1068       H  0.86427323  0.64606445  0.54848479     0.08000
H1069       H  0.79773937  0.63214186  0.55756403     0.08000
H1070       H  0.77957354  0.89239296  0.58286388     0.08000
H1071       H  0.73666254  0.87530007  0.55025899     0.08000
H1072       H  0.80261394  0.89084939  0.54129526     0.04800
C1073       C  0.70001185  0.80924469  0.81024439    -0.21000
C1074       C  0.69766903  0.78031064  0.78142974    -0.07600
C1075       C  0.69348076  0.72660322  0.78365833     0.13300
C1076       C  0.69560915  0.70297338  0.81473456    -0.21100
C1077       C  0.70300005  0.73162014  0.84342293    -0.07600
C1078       C  0.70328127  0.78574942  0.84122240     0.13300
C1079       C  0.70744192  0.81938073  0.87127293    -0.24400
H1080       H  0.70272640  0.85045649  0.80836026     0.14500
H1081       H  0.69439913  0.66165655  0.81644314     0.14600
C1082       C  0.68691271  0.69406004  0.75334224    -0.24400
H1083       H  0.70200761  0.86033912  0.86499521     0.04800
H1084       H  0.74611816  0.81516455  0.88252080     0.08000
H1085       H  0.67744174  0.80929355  0.88951524     0.08000
H1086       H  0.72176187  0.69540220  0.73761451     0.08000
H1087       H  0.65304158  0.70790498  0.73907501     0.08000
H1088       H  0.68068924  0.65349183  0.75983481     0.04800
C1089       C  0.77413607  0.06579954  0.79563268    -0.21000
C1090       C  0.78096440  0.10967605  0.77635726    -0.07600
C1091       C  0.78180622  0.10541644  0.74172357     0.13300
C1092       C  0.77869091  0.05695731  0.72728285    -0.21100
C1093       C  0.77344937  0.01265464  0.74653984    -0.07600
C1094       C  0.76912004  0.01745897  0.78117108     0.13300
C1095       C  0.76077843  0.97193778  0.80309401    -0.24400
H1096       H  0.77361074  0.06939106  0.82227543     0.14500
H1097       H  0.77997963  0.05372764  0.70062921     0.14600
C1098       C  0.78803448  0.15154920  0.72002076    -0.24400
H1099       H  0.76116365  0.98252372  0.82961157     0.04800
H1100       H  0.79164558  0.94290645  0.79887808     0.08000
H1101       H  0.72277123  0.95515074  0.79783049     0.08000
H1102       H  0.82455511  0.17081382  0.72599771     0.08000
H1103       H  0.75528243  0.17854487  0.72399115     0.08000
H1104       H  0.78882303  0.14119103  0.69345913     0.04800
C1105       C  0.67656264  0.10351684  0.63470635    -0.21000
C1106       C  0.70494552  0.11302464  0.60618075    -0.07600
C1107       C  0.73522567  0.07393799  0.59197925     0.13300
C1108       C  0.73713004  0.02588794  0.60703361    -0.21100
C1109       C  0.70865462  0.01559373  0.63580974    -0.07600
C1110       C  0.67755824  0.05536345  0.64972942     0.13300
C1111       C  0.64475349  0.04816315  0.68004879    -0.31600
H1112       H  0.65208084  0.13371508  0.64463128     0.14500
H1113       H  0.76126000  0.99629329  0.59615276     0.14600
C1114       C  0.76515389  0.08303083  0.56074023    -0.24400
H1115       H  0.62171671  0.08297456  0.68610848     0.04800
H1116       H  0.66941017  0.03960397  0.70172849     0.08000
H1117       H  0.61734399  0.01682358  0.67588715     0.08000
H1118       H  0.79239878  0.11458498  0.56465246     0.08000
H1119       H  0.73845906  0.09349698  0.54040032     0.08000
H1120       H  0.78757416  0.04861664  0.55306461     0.04800
loop_ 
_geom_bond_atom_site_label_1 
_geom_bond_atom_site_label_2 
_geom_bond_distance 
_geom_bond_site_symmetry_2 
_ccdc_geom_bond_type 
O1           C16   1.259       .  A
O1           Al9   1.863       .  S
C2           O12   1.255       .  A
C2            O3   1.271       .  A
C2          C469   1.483       .  S
O3           Al5   1.949       .  S
O4            C6   1.249       .  A
O4           Al5   1.861       .  S
Al5          O13   1.857       .  S
Al5          O15   1.951       .  S
Al5          O14   1.776       .  S
C6           O19   1.262       .  A
C6          C498   1.474       .  S
O7           C17   1.263       .  A
O7           Al9   1.887       .  S
O8           C21   1.261       .  A
O8          Al18   1.891       .  S
Al9          O22   1.927       .  S
Al9          O19   1.940       .  S
Al9          O14   1.783       .  S
O10          C17   1.268       .  A
O10         Al18   1.940       .  S
O11          C20   1.265       .  A
O11         Al18   1.944       .  S
O12         Al18   1.858       .  S
O13          C20   1.249       .  A
O14         Al18   1.782       .  S
O15          C16   1.273       .  A
C16         C482   1.494       .  S
C17         C549   1.492   1_565  S
C20         C514   1.479       .  S
C21          O22   1.265       .  A
C21         C533   1.477   1_565  S
O23          C38   1.257       .  A
O23         Al31   1.855       .  S
C24          O34   1.258       .  A
C24          O25   1.272       .  A
C24         C418   1.473       .  S
O25         Al27   1.948       .  S
O26          C28   1.245       .  A
O26         Al27   1.849       .  S
Al27         O35   1.857       .  S
Al27         O37   1.945       .  S
Al27         O36   1.773       .  S
C28          O41   1.263       .  A
C28         C517   1.481       .  S
O29          C39   1.259       .  A
O29         Al31   1.880       .  S
O30          C43   1.265       .  A
O30         Al40   1.902       .  S
Al31         O44   1.940       .  S
Al31         O41   1.947       .  S
Al31         O36   1.781       .  S
O32          C39   1.269       .  A
O32         Al40   1.942       .  S
O33          C42   1.266   1_556  A
O33        Al600   1.955       .  S
O34         Al40   1.868       .  S
O35         C602   1.249       .  A
O36         Al40   1.787       .  S
O37          C38   1.271       .  A
C38         C402   1.480       .  S
C39         C434   1.482       .  S
Al40        O593   1.951       .  S
C42         O595   1.248   1_554  A
C42         C501   1.488       .  S
C43          O44   1.269       .  A
C43         C453   1.481       .  S
O45          C60   1.267       .  A
O45         Al53   1.938       .  S
C46          O56   1.268       .  A
C46          O47   1.256       .  A
C46         C386   1.468       .  S
O47         Al49   1.865       .  S
O48          C50   1.269       .  A
O48         Al49   1.944       .  S
Al49         O57   1.944       .  S
Al49         O59   1.886       .  S
Al49         O58   1.790       .  S
C50          O63   1.260       .  A
C50         C421   1.475   1_455  S
O51          C61   1.261       .  A
O51         Al53   1.936       .  S
O52          C65   1.270       .  A
O52         Al62   1.939       .  S
Al53         O66   1.868       .  S
Al53         O63   1.890       .  S
Al53         O58   1.786       .  S
O54          C61   1.247       .  A
O54         Al62   1.857       .  S
O55          C64   1.249       .  A
O55         Al62   1.855       .  S
O56         Al62   1.934       .  S
O57          C64   1.264       .  A
O58         Al62   1.780       .  S
O59          C60   1.260       .  A
C60         C485   1.482   1_455  S
C61         C354   1.475       .  S
C64         C370   1.484       .  S
C65          O66   1.259       .  A
C65         C338   1.477       .  S
O67          C82   1.268       .  A
O67         Al75   1.941       .  S
C68          O78   1.271       .  A
C68          O69   1.254       .  A
C68         C309   1.474       .  S
O69         Al71   1.849       .  S
O70          C72   1.270       .  A
O70         Al71   1.936       .  S
Al71         O81   1.884       .  S
Al71        O639   1.941       .  S
Al71         O80   1.782       .  S
C72          O85   1.261       .  A
C72         C466   1.488       .  S
O73          C83   1.264       .  A
O73         Al75   1.941       .  S
O74          C87   1.271       .  A
O74         Al84   1.948       .  S
Al75         O88   1.856       .  S
Al75         O85   1.892       .  S
Al75         O80   1.783       .  S
O76          C83   1.250       .  A
O76         Al84   1.863       .  S
O77         C646   1.250       .  A
O77         Al84   1.862       .  S
O78         Al84   1.948       .  S
O79          C86   1.264       .  A
O79        Al631   1.943       .  S
O80         Al84   1.783       .  S
O81          C82   1.259       .  A
C82         C405   1.484       .  S
C83         C373   1.479       .  S
C86         O637   1.249       .  A
C86         C357   1.477       .  S
C87          O88   1.258       .  A
C87         C325   1.482       .  S
O89         C104   1.258       .  A
O89         Al97   1.867       .  S
C90         O100   1.257       .  A
C90          O91   1.274       .  A
C90         C242   1.498       .  S
O91         Al93   1.956       .  S
O92          C94   1.249       .  A
O92         Al93   1.860       .  S
Al93        O101   1.856       .  S
Al93        O103   1.954       .  S
Al93        O102   1.771       .  S
C94         O107   1.264       .  A
C94         C277   1.491       .  S
O95         C105   1.262       .  A
O95         Al97   1.887       .  S
O96         C109   1.261       .  A
O96        Al106   1.889       .  S
Al97        O110   1.941       .  S
Al97        O107   1.952       .  S
Al97        O102   1.786       .  S
O98         C105   1.268       .  A
O98        Al106   1.936       .  S
O99         C108   1.264       .  A
O99        Al106   1.952       .  S
O100       Al106   1.858       .  S
O101        C108   1.247       .  A
O102       Al106   1.786       .  S
O103        C104   1.275       .  A
C104        C261   1.487       .  S
C105        C306   1.487   1_545  S
C108        C290   1.484       .  S
C109        O110   1.268       .  A
C109        C341   1.466   1_545  S
O111        C126   1.256       .  A
O111       Al119   1.850       .  S
C112        O122   1.255       .  A
C112        O113   1.274       .  A
C112        C226   1.487       .  S
O113       Al115   1.956       .  S
O114        C116   1.249       .  A
O114       Al115   1.864       .  S
Al115       O123   1.863       .  S
Al115       O125   1.955       .  S
Al115       O124   1.775       .  S
C116        O129   1.263       .  A
C116        C293   1.483       .  S
O117        C127   1.260       .  A
O117       Al119   1.886       .  S
O118        C131   1.259       .  A
O118       Al128   1.879       .  S
Al119       O132   1.941       .  S
Al119       O129   1.946       .  S
Al119       O124   1.781       .  S
O120        C127   1.268       .  A
O120       Al128   1.939       .  S
O121        C130   1.265   1_556  A
O121       Al688   1.954       .  S
O122       Al128   1.846       .  S
O123        C690   1.249       .  A
O124       Al128   1.785       .  S
O125        C126   1.275       .  A
C126        C210   1.491       .  S
C127        C389   1.469       .  S
Al128       O681   1.946       .  S
C130        O683   1.249   1_554  A
C130        C274   1.488       .  S
C131        O132   1.268       .  A
C131        C322   1.466       .  S
O133        C148   1.268       .  A
O133       Al141   1.923       .  S
C134        O144   1.269       .  A
C134        O135   1.265       .  A
C134        C530   1.469       .  S
O135       Al137   1.898       .  S
O136        C138   1.266       .  A
O136       Al137   1.933       .  S
Al137       O145   1.933       .  S
Al137       O147   1.873       .  S
Al137       O146   1.780       .  S
C138        O151   1.253       .  A
C138        C258   1.478       .  S
O139        C149   1.266       .  A
O139       Al141   1.940       .  S
O140        C153   1.268       .  A
O140       Al150   1.914       .  S
Al141       O154   1.902       .  S
Al141       O151   1.870       .  S
Al141       O146   1.780       .  S
O142        C149   1.253       .  A
O142       Al150   1.887       .  S
O143        C152   1.251       .  A
O143       Al150   1.878       .  S
O144       Al150   1.910       .  S
O145        C152   1.262       .  A
O146       Al150   1.783       .  S
O147        C148   1.257       .  A
C148        C229   1.494       .  S
C149        C197   1.495       .  S
C152        C181   1.497       .  S
C153        O154   1.263       .  A
C153        C437   1.468       .  S
O155        C170   1.266       .  A
O155       Al163   1.923       .  S
C156        O166   1.267       .  A
C156        O157   1.265       .  A
C156        C450   1.470       .  S
O157       Al159   1.910       .  S
O158        C160   1.267       .  A
O158       Al159   1.923       .  S
Al159       O167   1.929       .  S
Al159       O169   1.875       .  S
Al159       O168   1.778       .  S
C160        O173   1.257       .  A
C160        C213   1.491       .  S
O161        C171   1.264       .  A
O161       Al723   1.926       .  S
O162        C175   1.267       .  A
O162       Al172   1.909       .  S
Al163       O176   1.904       .  S
Al163       O173   1.878       .  S
Al163       O721   1.925       .  S
Al163       O168   1.780       .  S
O164        C731   1.253       .  A
O164       Al172   1.886       .  S
O165        C174   1.253       .  A
O165       Al172   1.890       .  S
O166       Al172   1.907       .  S
O167        C174   1.263       .  A
O168       Al172   1.786       .  S
O169        C170   1.257       .  A
C170        C245   1.494       .  S
C171        O724   1.255       .  A
C171        C178   1.495       .  S
C174        C194   1.492       .  S
C175        O176   1.263       .  A
C175        C546   1.462       .  S
C177        C178   1.414       .  A
C177        C182   1.406       .  A
C177        H184   1.083       .  S
C178        C179   1.413       .  A
C179        C180   1.405       .  A
C179        C186   1.509       .  S
C180        C181   1.414       .  A
C180        H185   1.083       .  S
C181        C182   1.413       .  A
C182        C183   1.508       .  S
C183        H187   1.111       .  S
C183        H188   1.111       .  S
C183        H189   1.110       .  S
C186        H190   1.111       .  S
C186        H191   1.110       .  S
C186        H192   1.111       .  S
C193        C194   1.412       .  A
C193        C198   1.407       .  A
C193        H200   1.085       .  S
C194        C195   1.412       .  A
C195        C196   1.404       .  A
C195        C202   1.509       .  S
C196        C197   1.414       .  A
C196        H201   1.085       .  S
C197        C198   1.412       .  A
C198        C199   1.506       .  S
C199        H203   1.111       .  S
C199        H204   1.110       .  S
C199        H205   1.110       .  S
C202        H206   1.111       .  S
C202        H207   1.110       .  S
C202        H208   1.111       .  S
C209        C210   1.416       .  A
C209        C774   1.404       .  A
C209        H776   1.082       .  S
C210        C211   1.413       .  A
C211        C212   1.402       .  A
C211        C218   1.509       .  S
C212        C773   1.412       .  A
C212        H217   1.083       .  S
C213        C214   1.416       .  A
C213        C772   1.413   1_554  A
C214        C769   1.404   1_554  A
C214        C215   1.508       .  S
C215        H219   1.111       .  S
C215        H220   1.110       .  S
C215        H221   1.110       .  S
H216        C769   1.087   1_554  S
C218        H222   1.110       .  S
C218        H223   1.110       .  S
C218        H224   1.111       .  S
C225        C226   1.411       .  A
C225        C230   1.402       .  A
C225        H232   1.084       .  S
C226        C227   1.409       .  A
C227        C228   1.404       .  A
C227        C234   1.508       .  S
C228        C229   1.416   1_455  A
C228        H233   1.083       .  S
C229        C230   1.414   1_655  A
C230        C231   1.508   1_455  S
C231        H235   1.111   1_655  S
C231        H236   1.111       .  S
C231        H237   1.110       .  S
C234        H238   1.111       .  S
C234        H239   1.110       .  S
C234        H240   1.111       .  S
C241        C242   1.416       .  A
C241        C246   1.406       .  A
C241        H248   1.083       .  S
C242        C243   1.414       .  A
C243        C244   1.404       .  A
C243        C250   1.508       .  S
C244        C245   1.413       .  A
C244        H249   1.084       .  S
C245        C246   1.412       .  A
C246        C247   1.508       .  S
C247        H251   1.111       .  S
C247        H252   1.110       .  S
C247        H253   1.110       .  S
C250        H254   1.110       .  S
C250        H255   1.110       .  S
C250        H256   1.111       .  S
C257        C258   1.406   1_455  A
C257        C262   1.403       .  A
C257        H264   1.084       .  S
C258        C259   1.406   1_655  A
C259        C260   1.409       .  A
C259        C266   1.505   1_455  S
C260        C261   1.413       .  A
C260        H265   1.083       .  S
C261        C262   1.413       .  A
C262        C263   1.508       .  S
C263        H267   1.111       .  S
C263        H268   1.109       .  S
C263        H269   1.110       .  S
C266        H270   1.110       .  S
C266        H271   1.110       .  S
C266        H272   1.111       .  S
C273        C274   1.412       .  A
C273        C278   1.410       .  A
C273        H280   1.085       .  S
C274        C275   1.413       .  A
C275        C276   1.406       .  A
C275        C282   1.508       .  S
C276        C277   1.410       .  A
C276        H281   1.085       .  S
C277        C278   1.411       .  A
C278        C279   1.506       .  S
C279        H283   1.111       .  S
C279        H284   1.110       .  S
C279        H285   1.111       .  S
C282        H286   1.104       .  S
C282        H287   1.111       .  S
C282        H288   1.110       .  S
C289        C290   1.399       .  A
C289        C294   1.408       .  A
C289        H296   1.084       .  S
C290        C291   1.421       .  A
C291        C292   1.405       .  A
C291        C298   1.508       .  S
C292        C293   1.398       .  A
C292        H297   1.084       .  S
C293        C294   1.421       .  A
C294        C295   1.508       .  S
C295        H299   1.111       .  S
C295        H300   1.108       .  S
C295        H301   1.111       .  S
C298        H302   1.108       .  S
C298        H303   1.110       .  S
C298        H304   1.111       .  S
C305        C306   1.411       .  A
C305        C310   1.404       .  A
C305        H312   1.086   1_565  S
C306        C307   1.418       .  A
C307        C308   1.400       .  A
C307        C314   1.510       .  S
C308        C309   1.404       .  A
C308        H313   1.087       .  S
C309        C310   1.408       .  A
C310        C311   1.506       .  S
C311        H315   1.111       .  S
C311        H316   1.109       .  S
C311        H317   1.111       .  S
C314        H318   1.109       .  S
C314        H319   1.111   1_565  S
C314        H320   1.111       .  S
C321        C326   1.408       .  A
C321        C882   1.409   1_554  A
C321        H888   1.086       .  S
C322        C881   1.403       .  A
C322        C883   1.402       .  A
C323        C324   1.397   1_556  A
C323        C882   1.416       .  A
C323        C330   1.510       .  S
C324        C325   1.405       .  A
C324        H329   1.085       .  S
C325        C326   1.413       .  A
C326        C327   1.507       .  S
C327        H331   1.111       .  S
C327        H332   1.110       .  S
C327        H333   1.111       .  S
H328        C881   1.084       .  S
C330        H334   1.109       .  S
C330        H336   1.111       .  S
C330        H895   1.110       .  S
H335        C890   1.111       .  S
C337        C338   1.408       .  A
C337        C342   1.403       .  A
C337        H344   1.083       .  S
C338        C339   1.414       .  A
C339        C340   1.405       .  A
C339        C346   1.508       .  S
C340        C341   1.403       .  A
C340        H345   1.083       .  S
C341        C342   1.405       .  A
C342        C343   1.506   1_565  S
C343        H347   1.110       .  S
C343        H348   1.111       .  S
C343        H349   1.110       .  S
C346        H350   1.110       .  S
C346        H351   1.110       .  S
C346        H352   1.111       .  S
C353        C354   1.397       .  A
C353        C358   1.402       .  A
C353        H360   1.082       .  S
C354        C355   1.419       .  A
C355        C356   1.404       .  A
C355        C362   1.508       .  S
C356        C357   1.399       .  A
C356        H361   1.082       .  S
C357        C358   1.421       .  A
C358        C919   1.508       .  S
C359        C918   1.507       .  S
C359        H363   1.110       .  S
C359        H364   1.107   1_556  S
C359        H365   1.110       .  S
C362        H366   1.111       .  S
C362        H367   1.109       .  S
C362        H368   1.111       .  S
C369        C370   1.409       .  A
C369        C374   1.404       .  A
C369        H376   1.085       .  S
C370        C371   1.411       .  A
C371        C372   1.407       .  A
C371        C378   1.506       .  S
C372        C373   1.408       .  A
C372        H377   1.085       .  S
C373        C374   1.408       .  A
C374        C375   1.505       .  S
C375        H379   1.111       .  S
C375        H380   1.111       .  S
C375        H381   1.110       .  S
C378        H382   1.110       .  S
C378        H383   1.110       .  S
C378        H384   1.111       .  S
C385        C386   1.404       .  A
C385        C390   1.404       .  A
C385        H392   1.085       .  S
C386        C387   1.411       .  A
C387        C388   1.401       .  A
C387        C394   1.508       .  S
C388        C389   1.404       .  A
C388        H393   1.085       .  S
C389        C390   1.410       .  A
C390        C391   1.507       .  S
C391        H395   1.111       .  S
C391        H396   1.111       .  S
C391        H397   1.110       .  S
C394        H398   1.111       .  S
C394        H399   1.110       .  S
C394        H400   1.111       .  S
C401        C402   1.407       .  A
C401        C406   1.400       .  A
C401        H408   1.086       .  S
C402        C403   1.411       .  A
C403        C404   1.403       .  A
C403        C410   1.506       .  S
C404        C965   1.408       .  A
C404        H969   1.085       .  S
C405        C964   1.409   1_554  A
C405        C966   1.411       .  A
C406        C965   1.414       .  A
C406        C407   1.510       .  S
C407        H411   1.111       .  S
C407        H412   1.110       .  S
C407        H973   1.109       .  S
H409        C964   1.086       .  S
C410        H414   1.110       .  S
C410        H415   1.109       .  S
C410        H416   1.111       .  S
H413        C967   1.109       .  S
C417        C418   1.405       .  A
C417        C422   1.407       .  A
C417        H424   1.084       .  S
C418        C419   1.412       .  A
C419        C420   1.403       .  A
C419        C426   1.507       .  S
C420        C421   1.403       .  A
C420        H425   1.086       .  S
C421        C422   1.412       .  A
C422        C423   1.507   1_655  S
C423        H427   1.111       .  S
C423        H428   1.110       .  S
C423        H429   1.111       .  S
C426        H430   1.110       .  S
C426        H431   1.111       .  S
C426        H432   1.111       .  S
C433        C434   1.409       .  A
C433        C438   1.403       .  A
C433        H440   1.083       .  S
C434        C435   1.418       .  A
C435        C436   1.401       .  A
C435        C442   1.509       .  S
C436        C437   1.401       .  A
C436        H441   1.084       .  S
C437        C438   1.409       .  A
C438        C439   1.508       .  S
C439        H443   1.111       .  S
C439        H444   1.111       .  S
C439        H445   1.110       .  S
C442        H446   1.110       .  S
C442        H447   1.109       .  S
C442        H448   1.111       .  S
C449        C450   1.401       .  A
C449        C454   1.402       .  A
C449        H456   1.084       .  S
C450        C451   1.409   1_554  A
C451        C452   1.403       .  A
C451        C458   1.508       .  S
C452       C1013   1.409       .  A
C452        H457   1.084       .  S
C453       C1012   1.407       .  A
C453       C1014   1.410       .  A
C454       C1013   1.416   1_554  A
C454       C1015   1.503       .  S
C455       C1014   1.506       .  S
C455        H461   1.107       .  S
C455       H1019   1.111       .  S
C455       H1020   1.111       .  S
C458        H462   1.111       .  S
C458        H463   1.110       .  S
C458        H464   1.111       .  S
H459       C1015   1.111       .  S
H460       C1015   1.111       .  S
C465        C466   1.402       .  A
C465        C470   1.400       .  A
C465        H472   1.085       .  S
C466        C467   1.421       .  A
C467        C468   1.408       .  A
C467        C474   1.507       .  S
C468        C469   1.402       .  A
C468        H473   1.085       .  S
C469        C470   1.420       .  A
C470        C471   1.511       .  S
C471        H475   1.111       .  S
C471        H476   1.111       .  S
C471        H477   1.109       .  S
C474        H478   1.110       .  S
C474        H479   1.108       .  S
C474        H480   1.111       .  S
C481        C482   1.412       .  A
C481        C486   1.402       .  A
C481        H488   1.085       .  S
C482        C483   1.417       .  A
C483        C484   1.407       .  A
C483        C490   1.507       .  S
C484        C485   1.407       .  A
C484        H489   1.086       .  S
C485        C486   1.410       .  A
C486        C487   1.509   1_655  S
C487        H491   1.111   1_455  S
C487        H492   1.111       .  S
C487        H493   1.109       .  S
C490        H494   1.110       .  S
C490        H495   1.110       .  S
C490        H496   1.111       .  S
C497        C498   1.406       .  A
C497        C502   1.405       .  A
C497        H504   1.086       .  S
C498        C499   1.410       .  A
C499        C500   1.403       .  A
C499        C506   1.508       .  S
C500        C501   1.412       .  A
C500        H505   1.086       .  S
C501        C502   1.410       .  A
C502        C503   1.501       .  S
C503        H507   1.111       .  S
C503        H508   1.110       .  S
C503        H509   1.106       .  S
C506        H510   1.105       .  S
C506        H511   1.111       .  S
C506        H512   1.110       .  S
C513        C514   1.397       .  A
C513        C518   1.403       .  A
C513        H520   1.088       .  S
C514        C515   1.421       .  A
C515        C516   1.405       .  A
C515        C522   1.509       .  S
C516        C517   1.398       .  A
C516        H521   1.088       .  S
C517        C518   1.423       .  A
C518        C519   1.509       .  S
C519        H523   1.111       .  S
C519        H524   1.109       .  S
C519        H525   1.109       .  S
C522        H526   1.109       .  S
C522        H527   1.110       .  S
C522        H528   1.111       .  S
C529        C530   1.405       .  A
C529        C534   1.401       .  A
C529        H536   1.085       .  S
C530        C531   1.409       .  A
C531        C532   1.401       .  A
C531        C538   1.509       .  S
C532        C533   1.408       .  A
C532        H537   1.085       .  S
C533        C534   1.412       .  A
C534        C535   1.508   1_545  S
C535        H539   1.111       .  S
C535        H540   1.110       .  S
C535        H541   1.109       .  S
C538        H542   1.111       .  S
C538        H543   1.110       .  S
C538        H544   1.111       .  S
C545        C546   1.397       .  A
C545        C550   1.404       .  A
C545        H552   1.084       .  S
C546        C547   1.405       .  A
C547        C548   1.401       .  A
C547        C554   1.507       .  S
C548        C549   1.411       .  A
C548        H553   1.083   1_545  S
C549        C550   1.425       .  A
C550        C551   1.509       .  S
C551        H555   1.111       .  S
C551        H556   1.109       .  S
C551        H557   1.110       .  S
C554        H558   1.111       .  S
C554        H559   1.110       .  S
C554        H560   1.111       .  S
O561        C576   1.259       .  A
O561       Al569   1.863       .  S
C562        O572   1.254       .  A
C562        O563   1.271       .  A
C562       C1029   1.479       .  S
O563       Al565   1.944       .  S
O564        C566   1.248       .  A
O564       Al565   1.857       .  S
Al565       O573   1.856       .  S
Al565       O575   1.949       .  S
Al565       O574   1.781       .  S
C566        O579   1.263       .  A
C566       C1058   1.475       .  S
O567        C577   1.264       .  A
O567       Al569   1.890       .  S
O568        C581   1.261       .  A
O568       Al578   1.893       .  S
Al569       O582   1.935       .  S
Al569       O579   1.947       .  S
Al569       O574   1.783       .  S
O570        C577   1.266       .  A
O570       Al578   1.930       .  S
O571        C580   1.263       .  A
O571       Al578   1.936       .  S
O572       Al578   1.854       .  S
O573        C580   1.249       .  A
O574       Al578   1.783       .  S
O575        C576   1.272       .  A
C576       C1042   1.484       .  S
C577       C1109   1.490   1_565  S
C580       C1074   1.475       .  S
C581        O582   1.267       .  A
C581       C1093   1.484   1_565  S
O583        C598   1.257       .  A
O583       Al591   1.855       .  S
C584        O594   1.258       .  A
C584        O585   1.271       .  A
C584        C978   1.469       .  S
O585       Al587   1.940       .  S
O586        C588   1.245       .  A
O586       Al587   1.852       .  S
Al587       O595   1.851       .  S
Al587       O597   1.949       .  S
Al587       O596   1.774       .  S
C588        O601   1.263       .  A
C588       C1077   1.482       .  S
O589        C599   1.261       .  A
O589       Al591   1.883       .  S
O590        C603   1.264       .  A
O590       Al600   1.897       .  S
Al591       O604   1.934       .  S
Al591       O601   1.946       .  S
Al591       O596   1.781       .  S
O592        C599   1.271       .  A
O592       Al600   1.951       .  S
O593        C602   1.264       .  A
O594       Al600   1.866       .  S
O596       Al600   1.786       .  S
O597        C598   1.272       .  A
C598        C962   1.488       .  S
C599        C994   1.481       .  S
C602       C1061   1.488       .  S
C603        O604   1.268       .  A
C603       C1013   1.486       .  S
O605        C620   1.267       .  A
O605       Al613   1.939       .  S
C606        O616   1.269       .  A
C606        O607   1.256       .  A
C606        C946   1.470       .  S
O607       Al609   1.865       .  S
O608        C610   1.269       .  A
O608       Al609   1.935       .  S
Al609       O617   1.934       .  S
Al609       O619   1.890       .  S
Al609       O618   1.789       .  S
C610        O623   1.260       .  A
C610        C981   1.467       .  S
O611        C621   1.261       .  A
O611       Al613   1.940       .  S
O612        C625   1.273       .  A
O612       Al622   1.948       .  S
Al613       O626   1.867       .  S
Al613       O623   1.888       .  S
Al613       O618   1.787       .  S
O614        C621   1.246       .  A
O614       Al622   1.858       .  S
O615        C624   1.248       .  A
O615       Al622   1.849       .  S
O616       Al622   1.940       .  S
O617        C624   1.262       .  A
O618       Al622   1.778       .  S
O619        C620   1.260       .  A
C620       C1045   1.491   1_455  S
C621        C914   1.481       .  S
C624        C930   1.476       .  S
C625        O626   1.258       .  A
C625        C898   1.470       .  S
O627        C642   1.267       .  A
O627       Al635   1.932       .  S
C628        O638   1.274       .  A
C628        O629   1.257       .  A
C628        C869   1.488       .  S
O629       Al631   1.854       .  S
O630        C632   1.270       .  A
O630       Al631   1.939       .  S
Al631       O641   1.885       .  S
Al631       O640   1.780       .  S
C632        O645   1.260       .  A
C632       C1026   1.484       .  S
O633        C643   1.263       .  A
O633       Al635   1.938       .  S
O634        C647   1.272       .  A
O634       Al644   1.953       .  S
Al635       O648   1.851       .  S
Al635       O645   1.886       .  S
Al635       O640   1.779       .  S
O636        C643   1.249       .  A
O636       Al644   1.856       .  S
O637       Al644   1.857       .  S
O638       Al644   1.955       .  S
O639        C646   1.263       .  A
O640       Al644   1.774       .  S
O641        C642   1.261       .  A
C642        C965   1.481       .  S
C643        C933   1.477       .  S
C646        C917   1.478   1_554  S
C647        O648   1.256       .  A
C647        C885   1.492       .  S
O649        C664   1.256       .  A
O649       Al657   1.854       .  S
C650        O660   1.257       .  A
C650        O651   1.274       .  A
C650        C802   1.501       .  S
O651       Al653   1.961       .  S
O652        C654   1.250       .  A
O652       Al653   1.857       .  S
Al653       O661   1.858       .  S
Al653       O663   1.965       .  S
Al653       O662   1.770       .  S
C654        O667   1.265       .  A
C654        C837   1.485       .  S
O655        C665   1.261       .  A
O655       Al657   1.879       .  S
O656        C669   1.261       .  A
O656       Al666   1.893       .  S
Al657       O670   1.943       .  S
Al657       O667   1.955       .  S
Al657       O662   1.782       .  S
O658        C665   1.272       .  A
O658       Al666   1.952       .  S
O659        C668   1.268       .  A
O659       Al666   1.962       .  S
O660       Al666   1.862       .  S
O661        C668   1.248       .  A
O662       Al666   1.779       .  S
O663        C664   1.275       .  A
C664        C821   1.481       .  S
C665        C866   1.481       .  S
C668        C850   1.488       .  S
C669        O670   1.269       .  A
C669        C901   1.478   1_545  S
O671        C686   1.255       .  A
O671       Al679   1.852       .  S
C672        O682   1.258       .  A
C672        O673   1.276       .  A
C672        C786   1.492       .  S
O673       Al675   1.959       .  S
O674        C676   1.248       .  A
O674       Al675   1.865       .  S
Al675       O683   1.863       .  S
Al675       O685   1.965       .  S
Al675       O684   1.779       .  S
C676        O689   1.261       .  A
C676        C853   1.481       .  S
O677        C687   1.259       .  A
O677       Al679   1.884       .  S
O678        C691   1.263       .  A
O678       Al688   1.897       .  S
Al679       O692   1.925       .  S
Al679       O689   1.938       .  S
Al679       O684   1.781       .  S
O680        C687   1.271       .  A
O680       Al688   1.952       .  S
O681        C690   1.264       .  A
O682       Al688   1.861       .  S
O684       Al688   1.790       .  S
O685        C686   1.276       .  A
C686        C770   1.480       .  S
C687        C949   1.480       .  S
C690        C834   1.480       .  S
C691        O692   1.266       .  A
C691        C882   1.484       .  S
O693        C708   1.269       .  A
O693       Al701   1.934       .  S
C694        O704   1.269       .  A
C694        O695   1.263       .  A
C694       C1090   1.475       .  S
O695       Al697   1.904       .  S
O696        C698   1.266       .  A
O696       Al697   1.922       .  S
Al697       O705   1.926       .  S
Al697       O707   1.880       .  S
Al697       O706   1.781       .  S
C698        O711   1.255       .  A
C698        C818   1.488       .  S
O699        C709   1.266       .  A
O699       Al701   1.936       .  S
O700        C713   1.268       .  A
O700       Al710   1.922       .  S
Al701       O714   1.898       .  S
Al701       O711   1.876       .  S
Al701       O706   1.782       .  S
O702        C709   1.254       .  A
O702       Al710   1.885       .  S
O703        C712   1.252       .  A
O703       Al710   1.877       .  S
O704       Al710   1.919       .  S
O705        C712   1.262       .  A
O706       Al710   1.784       .  S
O707        C708   1.257       .  A
C708        C789   1.482       .  S
C709        C757   1.490       .  S
C712        C741   1.489       .  S
C713        O714   1.262       .  A
C713        C997   1.478       .  S
O715        C730   1.268       .  A
O715       Al723   1.932       .  S
C716        O726   1.267       .  A
C716        O717   1.264       .  A
C716       C1010   1.481       .  S
O717       Al719   1.907       .  S
O718        C720   1.266       .  A
O718       Al719   1.924       .  S
Al719       O727   1.921       .  S
Al719       O729   1.882       .  S
Al719       O728   1.780       .  S
C720        O733   1.254       .  A
C720        C773   1.484       .  S
O721        C731   1.263       .  A
O722        C735   1.266       .  A
O722       Al732   1.914       .  S
Al723       O736   1.890       .  S
Al723       O733   1.864       .  S
Al723       O728   1.781       .  S
O724       Al732   1.888       .  S
O725        C734   1.253       .  A
O725       Al732   1.889       .  S
O726       Al732   1.913       .  S
O727        C734   1.262       .  A
O728       Al732   1.788       .  S
O729        C730   1.258       .  A
C730        C805   1.500       .  S
C731        C738   1.495   1_554  S
C734        C754   1.484       .  S
C735        O736   1.259       .  A
C735       C1106   1.461       .  S
C737        C738   1.415       .  A
C737        C742   1.405       .  A
C737        H744   1.083       .  S
C738        C739   1.413       .  A
C739        C740   1.404       .  A
C739        C746   1.508       .  S
C740        C741   1.412       .  A
C740        H745   1.084       .  S
C741        C742   1.411       .  A
C742        C743   1.508       .  S
C743        H747   1.111       .  S
C743        H748   1.110       .  S
C743        H749   1.110       .  S
C746        H750   1.110       .  S
C746        H751   1.110       .  S
C746        H752   1.111       .  S
C753        C754   1.410       .  A
C753        C758   1.407       .  A
C753        H760   1.086       .  S
C754        C755   1.411       .  A
C755        C756   1.402       .  A
C755        C762   1.509       .  S
C756        C757   1.412       .  A
C756        H761   1.086       .  S
C757        C758   1.412       .  A
C758        C759   1.506       .  S
C759        H763   1.111       .  S
C759        H764   1.110       .  S
C759        H765   1.111       .  S
C762        H766   1.111       .  S
C762        H767   1.110       .  S
C762        H768   1.111       .  S
C769        C770   1.406       .  A
C770        C771   1.408       .  A
C771        C772   1.406       .  A
C771        C778   1.506       .  S
C772        H777   1.086       .  S
C773        C774   1.408       .  A
C774        C775   1.508       .  S
C775        H779   1.111       .  S
C775        H780   1.111       .  S
C775        H781   1.109       .  S
C778        H782   1.111       .  S
C778        H783   1.110       .  S
C778        H784   1.111       .  S
C785        C786   1.414       .  A
C785        C790   1.407   1_455  A
C785        H792   1.084       .  S
C786        C787   1.414       .  A
C787        C788   1.405       .  A
C787        C794   1.507       .  S
C788        C789   1.407   1_455  A
C788        H793   1.084       .  S
C789        C790   1.408       .  A
C790        C791   1.505       .  S
C791        H795   1.111       .  S
C791        H796   1.108       .  S
C791        H797   1.110       .  S
C794        H798   1.110       .  S
C794        H799   1.110       .  S
C794        H800   1.111       .  S
C801        C802   1.415       .  A
C801        C806   1.407       .  A
C801        H808   1.082       .  S
C802        C803   1.414       .  A
C803        C804   1.407       .  A
C803        C810   1.508       .  S
C804        C805   1.414       .  A
C804        H809   1.083       .  S
C805        C806   1.414       .  A
C806        C807   1.508       .  S
C807        H811   1.111       .  S
C807        H812   1.109       .  S
C807        H813   1.110       .  S
C810        H814   1.110       .  S
C810        H815   1.110       .  S
C810        H816   1.111       .  S
C817        C818   1.413   1_455  A
C817        C822   1.407       .  A
C817        H824   1.085   1_455  S
C818        C819   1.415   1_655  A
C819        C820   1.403       .  A
C819        C826   1.508       .  S
C820        C821   1.406       .  A
C820        H825   1.085       .  S
C821        C822   1.409       .  A
C822        C823   1.507       .  S
C823        H827   1.111       .  S
C823        H828   1.111       .  S
C823        H829   1.110       .  S
C826        H830   1.110   1_455  S
C826        H831   1.110       .  S
C826        H832   1.111       .  S
C833        C834   1.410       .  A
C833        C838   1.408       .  A
C833        H840   1.085       .  S
C834        C835   1.412       .  A
C835        C836   1.402       .  A
C835        C842   1.508       .  S
C836        C837   1.409       .  A
C836        H841   1.086       .  S
C837        C838   1.410       .  A
C838        C839   1.506       .  S
C839        H843   1.111       .  S
C839        H844   1.110       .  S
C839        H845   1.111       .  S
C842        H846   1.104       .  S
C842        H847   1.111       .  S
C842        H848   1.110       .  S
C849        C850   1.401       .  A
C849        C854   1.407       .  A
C849        H856   1.081       .  S
C850        C851   1.425       .  A
C851        C852   1.405       .  A
C851        C858   1.509       .  S
C852        C853   1.397       .  A
C852        H857   1.082       .  S
C853        C854   1.420       .  A
C854        C855   1.507       .  S
C855        H859   1.111       .  S
C855        H860   1.110       .  S
C855        H861   1.107       .  S
C858        H862   1.109       .  S
C858        H863   1.110       .  S
C858        H864   1.111       .  S
C865        C866   1.409   1_565  A
C865        C870   1.406       .  A
C865        H872   1.085       .  S
C866        C867   1.409   1_545  A
C867        C868   1.401       .  A
C867        C874   1.508   1_565  S
C868        C869   1.411       .  A
C868        H873   1.085       .  S
C869        C870   1.413       .  A
C870        C871   1.507       .  S
C871        H875   1.111       .  S
C871        H876   1.110       .  S
C871        H877   1.111       .  S
C874        H878   1.109       .  S
C874        H879   1.110       .  S
C874        H880   1.111   1_545  S
C881        C886   1.406       .  A
C883        C884   1.399       .  A
C883        C890   1.508       .  S
C884        C885   1.416       .  A
C884        H889   1.082       .  S
C885        C886   1.418       .  A
C886        C887   1.507       .  S
C887        H891   1.111       .  S
C887        H892   1.111       .  S
C887        H893   1.110       .  S
C890        H894   1.110       .  S
C890        H896   1.111       .  S
C897        C898   1.403       .  A
C897        C902   1.406       .  A
C897        H904   1.083       .  S
C898        C899   1.410       .  A
C899        C900   1.404       .  A
C899        C906   1.508       .  S
C900        C901   1.406       .  A
C900        H905   1.082       .  S
C901        C902   1.414       .  A
C902        C903   1.507   1_565  S
C903        H907   1.111       .  S
C903        H908   1.111       .  S
C903        H909   1.109       .  S
C906        H910   1.111       .  S
C906        H911   1.110       .  S
C906        H912   1.111       .  S
C913        C914   1.400       .  A
C913        C918   1.404       .  A
C913        H920   1.082       .  S
C914        C915   1.421       .  A
C915        C916   1.405       .  A
C915        C922   1.509       .  S
C916        C917   1.398       .  A
C916        H921   1.082       .  S
C917        C918   1.419       .  A
C919        H923   1.110       .  S
C919        H924   1.107       .  S
C919        H925   1.110       .  S
C922        H926   1.111       .  S
C922        H927   1.109       .  S
C922        H928   1.111       .  S
C929        C930   1.408       .  A
C929        C934   1.402       .  A
C929        H936   1.085       .  S
C930        C931   1.409       .  A
C931        C932   1.404       .  A
C931        C938   1.507       .  S
C932        C933   1.409       .  A
C932        H937   1.085       .  S
C933        C934   1.408       .  A
C934        C935   1.506       .  S
C935        H939   1.111       .  S
C935        H940   1.111       .  S
C935        H941   1.110       .  S
C938        H942   1.111       .  S
C938        H943   1.110       .  S
C938        H944   1.111       .  S
C945        C946   1.402       .  A
C945        C950   1.406       .  A
C945        H952   1.085       .  S
C946        C947   1.410       .  A
C947        C948   1.403       .  A
C947        C954   1.508       .  S
C948        C949   1.406       .  A
C948        H953   1.086       .  S
C949        C950   1.416       .  A
C950        C951   1.508       .  S
C951        H955   1.111       .  S
C951        H956   1.110       .  S
C951        H957   1.109       .  S
C954        H958   1.110       .  S
C954        H959   1.110       .  S
C954        H960   1.111       .  S
C961        C962   1.410       .  A
C961        C966   1.400   1_556  A
C961        H968   1.085       .  S
C962        C963   1.413       .  A
C963        C964   1.406       .  A
C963        C970   1.507       .  S
C966        C967   1.509       .  S
C967        H971   1.111       .  S
C967        H972   1.110       .  S
C970        H974   1.110       .  S
C970        H975   1.110       .  S
C970        H976   1.111       .  S
C977        C978   1.405       .  A
C977        C982   1.405   1_655  A
C977        H984   1.082       .  S
C978        C979   1.411       .  A
C979        C980   1.399       .  A
C979        C986   1.507       .  S
C980        C981   1.402   1_655  A
C980        H985   1.083       .  S
C981        C982   1.410       .  A
C982        C983   1.506       .  S
C983        H987   1.110       .  S
C983        H988   1.110       .  S
C983        H989   1.110       .  S
C986        H990   1.110       .  S
C986        H991   1.110       .  S
C986        H992   1.111       .  S
C993        C994   1.408       .  A
C993        C998   1.406       .  A
C993       H1000   1.083       .  S
C994        C995   1.413       .  A
C995        C996   1.402       .  A
C995       C1002   1.509       .  S
C996        C997   1.406       .  A
C996       H1001   1.084       .  S
C997        C998   1.411       .  A
C998        C999   1.508       .  S
C999       H1003   1.111       .  S
C999       H1004   1.108       .  S
C999       H1005   1.110       .  S
C1002      H1006   1.110       .  S
C1002      H1007   1.109       .  S
C1002      H1008   1.111       .  S
C1009      C1010   1.407       .  A
C1009      C1014   1.404       .  A
C1009      H1016   1.084       .  S
C1010      C1011   1.413       .  A
C1011      C1012   1.405       .  A
C1011      C1018   1.508       .  S
C1012      H1017   1.084       .  S
C1015      H1021   1.107       .  S
C1018      H1022   1.111       .  S
C1018      H1023   1.110       .  S
C1018      H1024   1.111       .  S
C1025      C1026   1.402       .  A
C1025      C1030   1.400       .  A
C1025      H1032   1.085       .  S
C1026      C1027   1.422       .  A
C1027      C1028   1.405       .  A
C1027      C1034   1.508       .  S
C1028      C1029   1.400       .  A
C1028      H1033   1.085       .  S
C1029      C1030   1.420       .  A
C1030      C1031   1.512       .  S
C1031      H1035   1.111       .  S
C1031      H1036   1.111       .  S
C1031      H1037   1.109       .  S
C1034      H1038   1.110       .  S
C1034      H1039   1.109       .  S
C1034      H1040   1.111       .  S
C1041      C1042   1.406       .  A
C1041      C1046   1.402       .  A
C1041      H1048   1.086       .  S
C1042      C1043   1.412       .  A
C1043      C1044   1.407       .  A
C1043      C1050   1.507       .  S
C1044      C1045   1.411       .  A
C1044      H1049   1.085       .  S
C1045      C1046   1.417       .  A
C1046      C1047   1.509       .  S
C1047      H1051   1.111       .  S
C1047      H1052   1.110   1_655  S
C1047      H1053   1.110       .  S
C1050      H1054   1.111       .  S
C1050      H1055   1.110       .  S
C1050      H1056   1.111       .  S
C1057      C1058   1.408       .  A
C1057      C1062   1.407       .  A
C1057      H1064   1.086       .  S
C1058      C1059   1.409       .  A
C1059      C1060   1.402       .  A
C1059      C1066   1.508       .  S
C1060      C1061   1.411       .  A
C1060      H1065   1.086       .  S
C1061      C1062   1.411       .  A
C1062      C1063   1.505       .  S
C1063      H1067   1.111       .  S
C1063      H1068   1.110       .  S
C1063      H1069   1.108       .  S
C1066      H1070   1.105       .  S
C1066      H1071   1.110       .  S
C1066      H1072   1.111       .  S
C1073      C1074   1.395       .  A
C1073      C1078   1.402       .  A
C1073      H1080   1.088       .  S
C1074      C1075   1.418       .  A
C1075      C1076   1.405       .  A
C1075      C1082   1.508       .  S
C1076      C1077   1.400       .  A
C1076      H1081   1.087       .  S
C1077      C1078   1.423       .  A
C1078      C1079   1.510       .  S
C1079      H1083   1.111       .  S
C1079      H1084   1.109       .  S
C1079      H1085   1.110       .  S
C1082      H1086   1.109       .  S
C1082      H1087   1.111       .  S
C1082      H1088   1.111       .  S
C1089      C1090   1.405       .  A
C1089      C1094   1.406       .  A
C1089      H1096   1.085       .  S
C1090      C1091   1.409       .  A
C1091      C1092   1.403       .  A
C1091      C1098   1.508       .  S
C1092      C1093   1.409       .  A
C1092      H1097   1.085       .  S
C1093      C1094   1.414       .  A
C1094      C1095   1.508   1_545  S
C1095      H1099   1.111       .  S
C1095      H1100   1.110       .  S
C1095      H1101   1.110       .  S
C1098      H1102   1.111       .  S
C1098      H1103   1.110       .  S
C1098      H1104   1.111       .  S
C1105      C1106   1.396       .  A
C1105      C1110   1.403       .  A
C1105      H1112   1.085       .  S
C1106      C1107   1.405       .  A
C1107      C1108   1.401       .  A
C1107      C1114   1.507       .  S
C1108      C1109   1.410       .  A
C1108      H1113   1.083   1_545  S
C1109      C1110   1.425       .  A
C1110      C1111   1.509       .  S
C1111      H1115   1.111       .  S
C1111      H1116   1.110       .  S
C1111      H1117   1.111       .  S
C1114      H1118   1.110       .  S
C1114      H1119   1.110       .  S
C1114      H1120   1.111       .  S
