geometry optimzed in LAMMPS
_audit_creation_date              2020-11-30 
_audit_creation_method            'lammps2cif' 
_symmetry_space_group_name_H-M    'P1' 
_symmetry_Int_Tables_number       1 
_symmetry_cell_setting            triclinic 
loop_ 
_symmetry_equiv_pos_as_xyz 
  x,y,z 
_cell_length_a                    52.72152917 
_cell_length_b                    51.73509211360298 
_cell_length_c                    49.578584321105204 
_cell_angle_alpha                 90.07767532404769 
_cell_angle_beta                  90.75672141558726 
_cell_angle_gamma                 89.42841043504806 
loop_ 
_atom_site_label 
_atom_site_type_symbol 
_atom_site_fract_x 
_atom_site_fract_y 
_atom_site_fract_z 
_atom_site_charge 
O1          O  0.03468818  0.97367003  0.20725612    -0.74600
O2          O  0.98764673  0.03047154  0.20981798    -0.74700
O3          O  0.03837190  0.02551806  0.20354232    -0.74700
O4          O  0.98379994  0.97828598  0.21320481    -0.74800
O5          O  0.98922024  0.98031931  0.25780934    -0.74700
O6          O  0.04347093  0.02815017  0.24815059    -0.74700
O7          O  0.99287670  0.03267354  0.25444639    -0.74700
O8          O  0.03994612  0.97642268  0.25184631    -0.74700
Ni9        Ni  0.01084508  0.00189294  0.20686647     1.25400
Ni10       Ni  0.01648855  0.00447517  0.25464560     1.25400
C11         C  0.04547777  0.96605671  0.22920318     0.87500
C12         C  0.98283676  0.04120637  0.23253326     0.87500
C13         C  0.05007345  0.03450289  0.22426838     0.87500
C14         C  0.97780382  0.97107707  0.23698461     0.87700
O15         O  0.22354878  0.29956737  0.24152249    -0.81100
O16         O  0.25484507  0.21298335  0.15869976    -0.65800
O17         O  0.24799588  0.25434951  0.22163972    -1.12400
C18         C  0.31282125  0.30318760  0.18422600     1.05800
O19         O  0.29698076  0.21282917  0.15991805    -0.79000
O20         O  0.31481875  0.23495709  0.20565887    -0.66600
Ni21       Ni  0.21486062  0.26412809  0.23413539     1.34900
C22         C  0.31187007  0.24723968  0.22755469     0.84500
O23         O  0.22786901  0.20724091  0.20261565    -0.79500
O24         O  0.20223150  0.22976019  0.22964455    -0.89800
C25         C  0.27598537  0.20359802  0.15163206     0.84100
O26         O  0.20124699  0.27415643  0.19989200    -0.68000
O27         O  0.32144089  0.28084514  0.17797321    -0.87300
C28         C  0.20574318  0.26625769  0.17614741     0.84900
C29         C  0.20853820  0.20900012  0.21757430     1.06500
H30         H  0.26647697  0.26749564  0.16210958     0.38300
O31         O  0.27331178  0.25889191  0.17793202    -1.10000
O32         O  0.29733816  0.26686772  0.22919226    -0.66600
Ni33       Ni  0.26949438  0.28095751  0.20829465     1.26300
O34         O  0.22349664  0.25035543  0.17057312    -0.66800
O35         O  0.29077589  0.30677644  0.19366248    -0.79100
C36         C  0.24457111  0.30859331  0.24975880     0.84300
O37         O  0.26525842  0.30199385  0.23911078    -0.66300
Ni38       Ni  0.30713921  0.24729445  0.17016138     1.27400
Ni39       Ni  0.25055532  0.23317904  0.19013981     1.26100
H40         H  0.25642758  0.24534239  0.23633244     0.38800
O41         O  0.71393935  0.20538575  0.25124014    -0.81100
O42         O  0.80323835  0.24334775  0.17630887    -0.65800
O43         O  0.75815005  0.23156364  0.23454276    -1.12400
C44         C  0.70960540  0.29937333  0.20026717     1.05800
O45         O  0.79602941  0.28531485  0.16965349    -0.79000
O46         O  0.77784394  0.29887883  0.21942820    -0.66600
Ni47       Ni  0.74836774  0.19662391  0.24166648     1.34900
C48         C  0.76596941  0.29604876  0.24138692     0.84500
O49         O  0.80632813  0.21534139  0.22065292    -0.79500
O50         O  0.78185086  0.18316164  0.23463754    -0.89800
C51         C  0.80864843  0.26468731  0.16532949     0.84100
O52         O  0.73748728  0.18950723  0.20558963    -0.68000
O53         O  0.73135975  0.30866597  0.19564227    -0.87300
C54         C  0.75014511  0.19268085  0.18425221     0.84900
C55         C  0.80344539  0.19240118  0.22896224     1.06500
H56         H  0.74675563  0.25172373  0.17511438     0.38300
O57         O  0.75431213  0.25904599  0.19123139    -1.10000
O58         O  0.74634459  0.28184419  0.24296658    -0.66600
Ni59       Ni  0.73226161  0.25404657  0.22109952     1.26300
O60         O  0.76836896  0.20868628  0.18302062    -0.66800
O61         O  0.70657710  0.27598983  0.20668526    -0.79100
C62         C  0.70299160  0.22626081  0.25841622     0.84300
O63         O  0.71070699  0.24815221  0.25088983    -0.66300
Ni64       Ni  0.76341641  0.29432207  0.18423122     1.27400
Ni65       Ni  0.78071513  0.23698516  0.20532220     1.26100
H66         H  0.76565040  0.23851821  0.25083727     0.38800
O67         O  0.81193202  0.71048088  0.19247057    -0.81100
O68         O  0.72167872  0.74425215  0.25990828    -0.65800
O69         O  0.76542911  0.73543631  0.20087850    -1.12400
C70         C  0.80719316  0.80808796  0.23542394     1.05800
O71         O  0.71839382  0.78675327  0.25455408    -0.79000
O72         O  0.74261809  0.80431963  0.21045357    -0.66600
Ni73       Ni  0.77647133  0.70178646  0.19012744     1.34900
C74         C  0.75582789  0.80081952  0.18951249     0.84500
O75         O  0.72055364  0.71260422  0.21793753    -0.79500
O76         O  0.74189694  0.69045269  0.18639481    -0.89800
C77         C  0.70993782  0.76541135  0.26333672     0.84100
O78         O  0.77889942  0.68582630  0.22481587    -0.68000
O79         O  0.78465329  0.81489196  0.24161219    -0.87300
C80         C  0.77263526  0.69281711  0.24838805     0.84900
C81         C  0.72185023  0.69510452  0.19983052     1.06500
H82         H  0.77451019  0.75986106  0.25892565     0.38300
O83         O  0.76628088  0.76498704  0.24221265    -1.10000
O84         O  0.77508428  0.78574920  0.18930085    -0.66600
Ni85       Ni  0.78956382  0.76011501  0.21361444     1.26300
O86         O  0.76107246  0.71401211  0.25318071    -0.66800
O87         O  0.81281019  0.78539570  0.22722861    -0.79100
C88         C  0.82213244  0.73040514  0.18240047     0.84300
O89         O  0.81251985  0.75271348  0.18554482    -0.66300
Ni90       Ni  0.75226335  0.79880503  0.24723830     1.27400
Ni91       Ni  0.74341212  0.73877613  0.23049646     1.26100
H92         H  0.75655277  0.74258950  0.18539252     0.38800
O93         O  0.28130986  0.78441918  0.17577506    -0.81100
O94         O  0.25369835  0.69206557  0.25233781    -0.65800
O95         O  0.26175849  0.73667373  0.19266256    -1.12400
C96         C  0.19496454  0.78320614  0.23550958     1.05800
O97         O  0.21203118  0.69172468  0.24669406    -0.79000
O98         O  0.18594708  0.72372751  0.21368857    -0.66600
Ni99       Ni  0.29425309  0.75033916  0.18476027     1.34900
C100        C  0.19205795  0.72877422  0.18961657     0.84500
O101        O  0.28283131  0.69021604  0.20931690    -0.79500
O102        O  0.31078399  0.71744227  0.19145575    -0.89800
C103        C  0.23259316  0.68093131  0.25464514     0.84100
O104        O  0.30148113  0.76198816  0.22047482    -0.68000
O105        O  0.19119038  0.76321205  0.24993676    -0.87300
C106        C  0.29897180  0.75014443  0.24266582     0.84900
C107        C  0.30422266  0.69490454  0.19900564     1.06500
H108        H  0.24256568  0.74890327  0.25007395     0.38300
O109        O  0.23508517  0.73927658  0.23532894    -1.10000
O110        O  0.21182590  0.74128018  0.18377007    -0.66600
Ni111      Ni  0.23641333  0.76038586  0.20428994     1.26300
O112        O  0.28502358  0.73031019  0.24495897    -0.66800
O113        O  0.21107127  0.78391954  0.21662636    -0.79100
C114        C  0.25968392  0.79237620  0.16730772     0.84300
O115        O  0.23939668  0.78109626  0.17332116    -0.66300
Ni116      Ni  0.20289805  0.72795454  0.24765783     1.27400
Ni117      Ni  0.25892811  0.71440314  0.22284967     1.26100
H118        H  0.25592554  0.72751642  0.17679285     0.38800
O119        O  0.24985384  0.00544486  0.92280734    -0.74600
O120        O  0.25088706  0.96868463  0.98926589    -0.74700
O121        O  0.24950738  0.01892358  0.97548066    -0.74700
O122        O  0.25144386  0.95501812  0.93678937    -0.74800
O123        O  0.29370484  0.95620929  0.93722899    -0.74700
O124        O  0.29179419  0.01948180  0.97666707    -0.74700
O125        O  0.29317968  0.96908588  0.98991745    -0.74700
O126        O  0.29211221  0.00673070  0.92369751    -0.74700
Ni127      Ni  0.24891621  0.98700370  0.95601423     1.25400
Ni128      Ni  0.29421681  0.98793301  0.95684032     1.25400
C129        C  0.27078553  0.01227080  0.91231783     0.87500
C130        C  0.27212158  0.96281862  0.00057893     0.87500
C131        C  0.27034718  0.02942665  0.98297620     0.87500
C132        C  0.27295820  0.94497468  0.93080943     0.87700
O133        O  0.03718910  0.26824593  0.98663199    -0.74600
O134        O  0.98805550  0.26967722  0.92929173    -0.74700
O135        O  0.03930587  0.26893736  0.93194918    -0.74700
O136        O  0.98620556  0.26874422  0.98379787    -0.74800
O137        O  0.98658233  0.31177970  0.98525111    -0.74700
O138        O  0.03906631  0.31199592  0.93186023    -0.74700
O139        O  0.98754115  0.31274271  0.93054338    -0.74700
O140        O  0.03810663  0.31133854  0.98676380    -0.74700
Ni141      Ni  0.01272893  0.26741256  0.95784981     1.25400
Ni142      Ni  0.01286046  0.31353273  0.95861405     1.25400
C143        C  0.04549991  0.28952268  0.99638836     0.87500
C144        C  0.97942589  0.29142307  0.92067034     0.87500
C145        C  0.04779072  0.29037048  0.92302880     0.87500
C146        C  0.97774959  0.29012210  0.99334424     0.87700
O147        O  0.72487248  0.01880753  0.93740084    -0.74600
O148        O  0.72735612  0.96668975  0.99290127    -0.74700
O149        O  0.72624445  0.01933810  0.99244595    -0.74700
O150        O  0.72591542  0.96602684  0.93803749    -0.74800
O151        O  0.76813603  0.96657582  0.93761053    -0.74700
O152        O  0.76845509  0.01980568  0.99152796    -0.74700
O153        O  0.76957455  0.96745592  0.99228588    -0.74700
O154        O  0.76709305  0.01903046  0.93682589    -0.74700
Ni155      Ni  0.72457227  0.99271704  0.96520279     1.25400
Ni156      Ni  0.76976184  0.99323798  0.96452504     1.25400
C157        C  0.74565347  0.02756405  0.92795105     0.87500
C158        C  0.74895144  0.95847450  0.00176215     0.87500
C159        C  0.74747281  0.02833948  0.00102967     0.87500
C160        C  0.74704888  0.95735888  0.92896351     0.87700
O161        O  0.98687618  0.71792999  0.99616639    -0.74600
O162        O  0.03047241  0.71455248  0.93558611    -0.74700
O163        O  0.97969898  0.71564620  0.94215012    -0.74700
O164        O  0.03739778  0.71681243  0.98964719    -0.74800
O165        O  0.03762121  0.67372526  0.99115682    -0.74700
O166        O  0.97932018  0.67262194  0.94418273    -0.74700
O167        O  0.03008121  0.67149513  0.93725923    -0.74700
O168        O  0.98690159  0.67488533  0.99830310    -0.74700
Ni169      Ni  0.00861425  0.71776204  0.96578066     1.25400
Ni170      Ni  0.00844932  0.67163658  0.96779111     1.25400
C171        C  0.97987047  0.69696917  0.00738985     0.87500
C172        C  0.03755000  0.69250027  0.92647340     0.87500
C173        C  0.96999123  0.69397245  0.93523946     0.87500
C174        C  0.04691605  0.69548904  0.99838329     0.87700
O175        O  0.28105615  0.77107723  0.75714424    -0.81100
O176        O  0.24622569  0.71892374  0.64851596    -0.65800
O177        O  0.25863252  0.76697010  0.70488444    -1.12400
C178        C  0.19118371  0.72221744  0.74640280     1.05800
O179        O  0.20462295  0.72508196  0.64955780    -0.79000
O180        O  0.18154578  0.75396823  0.68873120    -0.66600
Ni181      Ni  0.29199698  0.77062449  0.71991478     1.34900
C182        C  0.18834852  0.77511671  0.69964262     0.84500
O183        O  0.27766336  0.75841143  0.65384312    -0.79500
O184        O  0.30664523  0.77139182  0.68443156    -0.89800
C185        C  0.22444344  0.71689495  0.63767701     0.84100
O186        O  0.29984217  0.73471581  0.72339136    -0.68000
O187        O  0.18530656  0.71302547  0.72326745    -0.87300
C188        C  0.29551899  0.71617178  0.70724644     0.84900
C189        C  0.29941279  0.76720161  0.66012241     1.06500
H190        H  0.23663297  0.71175419  0.70712179     0.38300
O191        O  0.22966161  0.72779248  0.70018258    -1.10000
O192        O  0.20883479  0.77725304  0.71332891    -0.66600
Ni193      Ni  0.23365794  0.75293673  0.72766519     1.26300
O194        O  0.27908569  0.71776870  0.68821755    -0.66800
O195        O  0.20906112  0.73811746  0.75031082    -0.79100
C196        C  0.26030657  0.77839709  0.76776777     0.84300
O197        O  0.23950708  0.77762246  0.75489903    -0.66300
Ni198      Ni  0.19631909  0.71993784  0.68711987     1.27400
Ni199      Ni  0.25353406  0.74271184  0.67653053     1.26100
H200        H  0.25315931  0.78380102  0.69853929     0.38800
O201        O  0.02974950  0.96980190  0.65625320    -0.74600
O202        O  0.97713835  0.02244411  0.65484412    -0.74700
O203        O  0.02863141  0.02204840  0.65511208    -0.74700
O204        O  0.97799441  0.96980949  0.65551948    -0.74800
O205        O  0.97780189  0.97066186  0.70044184    -0.74700
O206        O  0.02918777  0.02262610  0.70005695    -0.74700
O207        O  0.97763321  0.02317640  0.69975136    -0.74700
O208        O  0.02927936  0.97030138  0.70116741    -0.74700
Ni209      Ni  0.00332500  0.99598308  0.65383219     1.25400
Ni210      Ni  0.00345038  0.99673115  0.70192574     1.25400
C211        C  0.03836492  0.96154188  0.67906975     0.87500
C212        C  0.96876873  0.03159659  0.67717789     0.87500
C213        C  0.03748853  0.03078083  0.67744305     0.87500
C214        C  0.96955709  0.96149185  0.67797669     0.87700
O215        O  0.29603877  0.20303334  0.74860046    -0.81100
O216        O  0.25470043  0.29193489  0.67072685    -0.65800
O217        O  0.27036887  0.24773400  0.73000902    -1.12400
C218        C  0.20150607  0.19897720  0.69436993     1.05800
O219        O  0.21355662  0.29092303  0.67860640    -0.79000
O220        O  0.19479687  0.26122620  0.71757348    -0.66600
Ni221      Ni  0.30489847  0.23645933  0.73477593     1.34900
C222        C  0.20231759  0.25252095  0.74023078     0.84500
O223        O  0.28684969  0.29545880  0.71204199    -0.79500
O224        O  0.31881520  0.26884385  0.72300934    -0.89800
C225        C  0.23261038  0.30142667  0.66792906     0.84100
O226        O  0.30706671  0.22251037  0.69937337    -0.68000
O227        O  0.19392445  0.21996303  0.68335750    -0.87300
C228        C  0.30320908  0.23494855  0.67762290     0.84900
C229        C  0.31011181  0.29126145  0.71736741     1.06500
H230        H  0.24592438  0.23560411  0.67342460     0.38300
O231        O  0.23981928  0.24427699  0.68938131    -1.10000
O232        O  0.22165076  0.23778006  0.74287226    -0.66600
Ni233      Ni  0.24622655  0.22214021  0.71926023     1.26300
O234        O  0.28866599  0.25483731  0.67643009    -0.66800
O235        O  0.22210702  0.19696028  0.70788711    -0.79100
C236        C  0.27570611  0.19211024  0.75573271     0.84300
O237        O  0.25395543  0.20030201  0.74870712    -0.66300
Ni238      Ni  0.20558305  0.25490052  0.68160953     1.27400
Ni239      Ni  0.26340545  0.27002627  0.70015964     1.26100
H240        H  0.26507897  0.25621121  0.74636041     0.38800
O241        O  0.78941365  0.28866107  0.75273816    -0.81100
O242        O  0.69985869  0.24953837  0.67880976    -0.65800
O243        O  0.74396884  0.26290062  0.73820188    -1.12400
C244        C  0.79237774  0.19265028  0.70285700     1.05800
O245        O  0.70171169  0.20679384  0.68198296    -0.79000
O246        O  0.72908000  0.18804377  0.72466702    -0.66600
Ni247      Ni  0.75443740  0.29791438  0.74491153     1.34900
C248        C  0.73928966  0.19371240  0.74725381     0.84500
O249        O  0.69632443  0.28113993  0.72048934    -0.79500
O250        O  0.72062592  0.31185829  0.73883800    -0.89800
C251        C  0.69115434  0.22745119  0.67326735     0.84100
O252        O  0.76346650  0.30612238  0.70883199    -0.68000
O253        O  0.77137566  0.18483996  0.69287117    -0.87300
C254        C  0.75201964  0.30069923  0.68690086     0.84900
C255        C  0.69923003  0.30372697  0.73021185     1.06500
H256        H  0.75522744  0.23942893  0.68121218     0.38300
O257        O  0.74705781  0.23280370  0.69706655    -1.10000
O258        O  0.75495510  0.21219230  0.75013250    -0.66600
Ni259      Ni  0.76931355  0.23839360  0.72710173     1.26300
O260        O  0.73539737  0.28306273  0.68517660    -0.66800
O261        O  0.79451175  0.21410072  0.71526022    -0.79100
C262        C  0.80034693  0.26804112  0.76102406     0.84300
O263        O  0.79112337  0.24591474  0.75665731    -0.66300
Ni264      Ni  0.73706397  0.19803184  0.68870685     1.27400
Ni265      Ni  0.72154705  0.25696504  0.70842249     1.26100
H266        H  0.73593447  0.25676241  0.75435733     0.38800
O267        O  0.71148824  0.78926559  0.67524426    -0.81100
O268        O  0.79815061  0.74354940  0.75024116    -0.65800
O269        O  0.75577393  0.76051262  0.68999805    -1.12400
C270        C  0.70478335  0.69207435  0.71737484     1.05800
O271        O  0.79230668  0.70107537  0.75075514    -0.79000
O272        O  0.77208278  0.68896566  0.70142259    -0.66600
Ni273      Ni  0.74653410  0.79614945  0.68427295     1.34900
C274        C  0.76093663  0.69355992  0.67902518     0.84500
O275        O  0.80359259  0.77506651  0.70911492    -0.79500
O276        O  0.78071910  0.80754300  0.69117783    -0.89800
C277        C  0.80422793  0.72111346  0.75832113     0.84100
O278        O  0.73685082  0.80369926  0.72047107    -0.68000
O279        O  0.72591249  0.68225326  0.72498637    -0.87300
C280        C  0.74763738  0.79736875  0.74256418     0.84900
C281        C  0.80174595  0.79771669  0.69929051     1.06500
H282        H  0.74188435  0.73666305  0.74636284     0.38300
O283        O  0.75015208  0.73011293  0.73045055    -1.10000
O284        O  0.74325321  0.71055554  0.67662029    -0.66600
Ni285      Ni  0.72915372  0.73775049  0.69952407     1.26300
O286        O  0.76408806  0.77921834  0.74411226    -0.66800
O287        O  0.70247429  0.71550515  0.71018732    -0.79100
C288        C  0.70143862  0.76985476  0.66372117     0.84300
O289        O  0.70901731  0.74701775  0.66876059    -0.66300
Ni290      Ni  0.75874653  0.69435195  0.73655612     1.27400
Ni291      Ni  0.77715311  0.75263091  0.72031729     1.26100
H292        H  0.76394456  0.75429127  0.67387590     0.38800
O293        O  0.51922748  0.48056962  0.70397441    -0.74600
O294        O  0.46664891  0.53250268  0.70458057    -0.74700
O295        O  0.51784775  0.53282030  0.70328571    -0.74700
O296        O  0.46787831  0.48019545  0.70512264    -0.74800
O297        O  0.46888864  0.48069995  0.75009439    -0.74700
O298        O  0.51931678  0.53359537  0.74825483    -0.74700
O299        O  0.46809205  0.53297729  0.74950708    -0.74700
O300        O  0.52055483  0.48068534  0.74890873    -0.74700
Ni301      Ni  0.49286116  0.50645777  0.70268714     1.25400
Ni302      Ni  0.49433454  0.50695412  0.75082278     1.25400
C303        C  0.52865337  0.47205894  0.72626808     0.87500
C304        C  0.45870307  0.54138465  0.72714802     0.87500
C305        C  0.52647547  0.54226073  0.72538869     0.87500
C306        C  0.45988381  0.47196963  0.72778088     0.87700
O307        O  0.53725382  0.47566184  0.14876682    -0.74600
O308        O  0.48687146  0.52924036  0.14887593    -0.74700
O309        O  0.53841711  0.52813175  0.14741947    -0.74700
O310        O  0.48591171  0.47709307  0.15046943    -0.74800
O311        O  0.48867586  0.47786672  0.19538095    -0.74700
O312        O  0.53947506  0.52970466  0.19233044    -0.74700
O313        O  0.48818797  0.52982248  0.19383672    -0.74700
O314        O  0.53956970  0.47750903  0.19365464    -0.74700
Ni315      Ni  0.51209728  0.50253647  0.14722984     1.25400
Ni316      Ni  0.51407806  0.50382576  0.19535290     1.25400
C317        C  0.54650010  0.46753452  0.17125410     0.87500
C318        C  0.47875773  0.53788436  0.17141860     0.87500
C319        C  0.54759934  0.53734870  0.16949190     0.87500
C320        C  0.47878081  0.46901288  0.17359283     0.87700
O321        O  0.75661643  0.51489536  0.43244841    -0.74600
O322        O  0.75675201  0.46631183  0.49075215    -0.74700
O323        O  0.75528988  0.51855327  0.48698331    -0.74700
O324        O  0.75777952  0.46269696  0.43647783    -0.74800
O325        O  0.80001571  0.46368496  0.43706084    -0.74700
O326        O  0.79748761  0.51926131  0.48931647    -0.74700
O327        O  0.79901112  0.46681399  0.49194172    -0.74700
O328        O  0.79883593  0.51638107  0.43457283    -0.74700
Ni329      Ni  0.75515725  0.49061374  0.46159798     1.25400
Ni330      Ni  0.80037379  0.49154852  0.46324916     1.25400
C331        C  0.77768661  0.52378385  0.42399956     0.87500
C332        C  0.77793515  0.45851090  0.50096209     0.87500
C333        C  0.77580077  0.52809372  0.49672422     0.87500
C334        C  0.77914253  0.45382938  0.42842366     0.87700
O335        O  0.47629313  0.80231722  0.48250355    -0.74600
O336        O  0.51903051  0.80024622  0.42141029    -0.74700
O337        O  0.46813713  0.79978253  0.42862671    -0.74700
O338        O  0.52712633  0.80191159  0.47553752    -0.74800
O339        O  0.52759235  0.75883779  0.47660303    -0.74700
O340        O  0.46924713  0.75676471  0.43083049    -0.74700
O341        O  0.52000202  0.75717840  0.42281291    -0.74700
O342        O  0.47685542  0.75926937  0.48449269    -0.74700
Ni343      Ni  0.49764816  0.80261742  0.45192946     1.25400
Ni344      Ni  0.49846086  0.75649946  0.45372764     1.25400
C345        C  0.46924209  0.78126371  0.49343037     0.87500
C346        C  0.52681327  0.77854776  0.41214123     0.87500
C347        C  0.45879454  0.77769143  0.42238224     0.87500
C348        C  0.53703115  0.78049213  0.48376933     0.87700
O349        O  0.21841663  0.50813119  0.42536790    -0.74600
O350        O  0.21354876  0.48072332  0.49674069    -0.74700
O351        O  0.21580334  0.52883980  0.47549636    -0.74700
O352        O  0.21586751  0.46027675  0.44670915    -0.74800
O353        O  0.25808468  0.45886365  0.44966327    -0.74700
O354        O  0.25798677  0.52736408  0.47887790    -0.74700
O355        O  0.25576943  0.47927110  0.49966588    -0.74700
O356        O  0.26061361  0.50687687  0.42888257    -0.74700
Ni357      Ni  0.21438633  0.49456934  0.46097994     1.25400
Ni358      Ni  0.25960009  0.49304824  0.46442985     1.25400
C359        C  0.24035829  0.51199791  0.41536783     0.87500
C360        C  0.23399900  0.47518404  0.50982723     0.87500
C361        C  0.23687315  0.53943280  0.48200812     0.87500
C362        C  0.23696423  0.44839199  0.44305386     0.87700
O363        O  0.51697692  0.19981210  0.48435789    -0.74600
O364        O  0.46633423  0.20726756  0.42891904    -0.74700
O365        O  0.51789040  0.20490053  0.42979670    -0.74700
O366        O  0.46541268  0.20292551  0.48337633    -0.74800
O367        O  0.46755217  0.24577983  0.48688215    -0.74700
O368        O  0.51935662  0.24770673  0.43431371    -0.74700
O369        O  0.46813337  0.25012978  0.43275210    -0.74700
O370        O  0.51868093  0.24264538  0.48858528    -0.74700
Ni371      Ni  0.49162226  0.20215646  0.45645659     1.25400
Ni372      Ni  0.49352523  0.24803313  0.46077737     1.25400
C373        C  0.52610438  0.21995953  0.49576528     0.87500
C374        C  0.45870330  0.22984915  0.42179208     0.87500
C375        C  0.52721647  0.22683962  0.42323210     0.87500
C376        C  0.45769039  0.22432947  0.49374796     0.87700
C377        C  0.68023367  0.77422421  0.64421851    -0.03400
C378        C  0.67179042  0.79948623  0.63816316    -0.06000
C379        C  0.65285840  0.80378805  0.61862034    -0.21100
C380        C  0.64220512  0.78302907  0.60442206     0.24600
C381        C  0.65006517  0.75769618  0.61098314    -0.18700
C382        C  0.66889141  0.75336039  0.63064946    -0.08600
C383        C  0.62255423  0.78834446  0.58335852    -0.18900
C384        C  0.61969484  0.77327429  0.56138326    -0.23700
C385        C  0.59940911  0.77684537  0.54054165     0.26700
C386        C  0.59362687  0.75574898  0.52386791    -0.20500
C387        C  0.57380229  0.75729464  0.50503563    -0.10100
C388        C  0.55940881  0.78015366  0.50210871    -0.10700
C389        C  0.56586142  0.80176243  0.51783692    -0.03600
C390        C  0.58565890  0.80014376  0.53695729    -0.18700
H391        H  0.68003164  0.81602062  0.64827978     0.10400
H392        H  0.64688813  0.82343995  0.61416817     0.10500
H393        H  0.64156651  0.74116659  0.60113981     0.10100
H394        H  0.67474218  0.73366345  0.63501035     0.11200
H395        H  0.61057081  0.80527197  0.58606954     0.11300
H396        H  0.63232676  0.75674982  0.55892268     0.13200
H397        H  0.60406914  0.73769440  0.52590226     0.09700
H398        H  0.56952355  0.74037722  0.49297686     0.11800
H399        H  0.55517868  0.81966406  0.51588554     0.08400
H400        H  0.58999087  0.81713640  0.54878027     0.11200
C401        C  0.76780512  0.67723595  0.65534573    -0.03400
C402        C  0.78928073  0.66087138  0.65645862    -0.06000
C403        C  0.79417273  0.64317091  0.63571533    -0.21100
C404        C  0.77760809  0.64101722  0.61342656     0.24600
C405        C  0.75657791  0.65804836  0.61177737    -0.18700
C406        C  0.75175513  0.67589863  0.63249127    -0.08600
C407        C  0.78303212  0.62084578  0.59251261    -0.18900
C408        C  0.76509848  0.61094514  0.57585588    -0.23700
C409        C  0.76925859  0.58982144  0.55560254     0.26700
C410        C  0.74788798  0.58014641  0.54188680    -0.20500
C411        C  0.75016712  0.56032864  0.52286862    -0.10100
C412        C  0.77398238  0.54950306  0.51679685    -0.10700
C413        C  0.79554859  0.55922056  0.53025437    -0.03600
C414        C  0.79326175  0.57915026  0.54944398    -0.18700
H415        H  0.80210917  0.66134916  0.67368747     0.10400
H416        H  0.81066453  0.63059693  0.63746747     0.10500
H417        H  0.74375539  0.65774593  0.59458593     0.10100
H418        H  0.73502311  0.68814968  0.63094145     0.11200
H419        H  0.80216741  0.61304241  0.59212177     0.11300
H420        H  0.74574568  0.61795706  0.57772599     0.13200
H421        H  0.72916270  0.58789931  0.54597731     0.09700
H422        H  0.73311046  0.55347969  0.51290060     0.11800
H423        H  0.81419255  0.55134889  0.52605229     0.08400
H424        H  0.81036721  0.58602483  0.55915657     0.11200
C425        C  0.54450455  0.56379700  0.72418661    -0.03400
C426        C  0.54650740  0.58160885  0.74549765    -0.06000
C427        C  0.56297254  0.60255797  0.74369370    -0.21100
C428        C  0.57810180  0.60562632  0.72088529     0.24600
C429        C  0.57571677  0.58806448  0.69936627    -0.18700
C430        C  0.55902211  0.56740816  0.70098500    -0.08600
C431        C  0.59704319  0.62654303  0.72037466    -0.18900
C432        C  0.62007992  0.62248485  0.70985098    -0.23700
C433        C  0.64096305  0.64113981  0.71238057     0.26700
C434        C  0.66552105  0.63141630  0.71671751    -0.20500
C435        C  0.68600239  0.64808203  0.71886773    -0.10100
C436        C  0.68247863  0.67492888  0.71612600    -0.10700
C437        C  0.65780879  0.68474608  0.71148574    -0.03600
C438        C  0.63712900  0.66796050  0.70983073    -0.18700
H439        H  0.53514502  0.57950105  0.76338729     0.10400
H440        H  0.56440616  0.61598940  0.76041199     0.10500
H441        H  0.58672201  0.59030642  0.68124891     0.10100
H442        H  0.55763537  0.55410701  0.68414961     0.11200
H443        H  0.59311808  0.64431773  0.73132004     0.11300
H444        H  0.62477446  0.60356105  0.70166320     0.13200
H445        H  0.66885183  0.61079434  0.71865141     0.09700
H446        H  0.70471600  0.63980142  0.72226237     0.11800
H447        H  0.65451566  0.70531556  0.70909698     0.08400
H448        H  0.61832613  0.67584773  0.70599770     0.11200
C449        C  0.75712367  0.31645688  0.66257846    -0.03400
C450        C  0.74400101  0.31162863  0.63826077    -0.06000
C451        C  0.74648462  0.32813332  0.61620515    -0.21100
C452        C  0.76214724  0.34988582  0.61774351     0.24600
C453        C  0.77570128  0.35452255  0.64193837    -0.18700
C454        C  0.77325671  0.33793217  0.66403252    -0.08600
C455        C  0.76259342  0.36759622  0.59406379    -0.18900
C456        C  0.77888459  0.38728102  0.59112679    -0.23700
C457        C  0.77818151  0.40495148  0.56746152     0.26700
C458        C  0.80032195  0.41811213  0.56058564    -0.20500
C459        C  0.80034679  0.43522133  0.53877670    -0.10100
C460        C  0.77806929  0.43986316  0.52359542    -0.10700
C461        C  0.75581494  0.42690768  0.53060638    -0.03600
C462        C  0.75582892  0.40967207  0.55230616    -0.18700
H463        H  0.73125141  0.29541945  0.63642144     0.10400
H464        H  0.73571827  0.32408929  0.59794502     0.10500
H465        H  0.78763430  0.37122952  0.64439217     0.10100
H466        H  0.78343189  0.34241802  0.68254345     0.11200
H467        H  0.74897395  0.36376502  0.57798782     0.11300
H468        H  0.79393144  0.39022078  0.60587232     0.13200
H469        H  0.81771029  0.41507068  0.57208211     0.09700
H470        H  0.81775627  0.44506899  0.53403129     0.11800
H471        H  0.73831046  0.43017450  0.51939195     0.08400
H472        H  0.73814121  0.40062240  0.55745278     0.11200
C473        C  0.66782406  0.22587876  0.65647570    -0.03400
C474        C  0.65334948  0.24829040  0.65112274    -0.06000
C475        C  0.63218271  0.24732318  0.63401019    -0.21100
C476        C  0.62521347  0.22408907  0.62151043     0.24600
C477        C  0.63914093  0.20142209  0.62749332    -0.18700
C478        C  0.66023972  0.20232934  0.64488341    -0.08600
C479        C  0.60363921  0.22467600  0.60205504    -0.18900
C480        C  0.60139909  0.20829378  0.58105526    -0.23700
C481        C  0.58163276  0.21155369  0.55969749     0.26700
C482        C  0.57370732  0.18992054  0.54485616    -0.20500
C483        C  0.55558830  0.19255354  0.52414020    -0.10100
C484        C  0.54532274  0.21699754  0.51760946    -0.10700
C485        C  0.55357888  0.23868073  0.53220043    -0.03600
C486        C  0.57156175  0.23603272  0.55293872    -0.18700
H487        H  0.65851732  0.26669880  0.65994495     0.10400
H488        H  0.62161799  0.26498959  0.62991478     0.10500
H489        H  0.63383899  0.18300853  0.61886155     0.10100
H490        H  0.67090960  0.18470652  0.64880082     0.11200
H491        H  0.59002930  0.24039740  0.60419407     0.11300
H492        H  0.61472147  0.19232578  0.57889253     0.13200
H493        H  0.58145859  0.17092470  0.54940661     0.09700
H494        H  0.54973306  0.17546727  0.51316143     0.11800
H495        H  0.54620556  0.25779369  0.52754943     0.08400
H496        H  0.57791981  0.25333819  0.56312839     0.11200
C497        C  0.54941922  0.45234172  0.72558887    -0.03400
C498        C  0.56360092  0.44886500  0.70200072    -0.06000
C499        C  0.58386957  0.43120101  0.70133333    -0.21100
C500        C  0.59000273  0.41596369  0.72390444     0.24600
C501        C  0.57559177  0.41895398  0.74741423    -0.18700
C502        C  0.55565606  0.43717074  0.74833549    -0.08600
C503        C  0.61244081  0.39831351  0.72283803    -0.18900
C504        C  0.61258181  0.37425348  0.73322364    -0.23700
C505        C  0.63499919  0.35654077  0.73162955     0.26700
C506        C  0.63134589  0.32987887  0.72815723    -0.20500
C507        C  0.65210612  0.31271336  0.72745167    -0.10100
C508        C  0.67701122  0.32176600  0.73098091    -0.10700
C509        C  0.68060548  0.34850739  0.73457202    -0.03600
C510        C  0.65988845  0.36569606  0.73471577    -0.18700
H511        H  0.55940655  0.46026763  0.68416261     0.10400
H512        H  0.59478143  0.42936300  0.68305608     0.10500
H513        H  0.58020004  0.40774864  0.76528070     0.10100
H514        H  0.54512391  0.43937478  0.76681529     0.11200
H515        H  0.62877531  0.40477276  0.71163581     0.11300
H516        H  0.59530731  0.36682414  0.74191489     0.13200
H517        H  0.61235476  0.32233552  0.72577997     0.09700
H518        H  0.64862548  0.29230897  0.72446222     0.11800
H519        H  0.69950391  0.35623042  0.73711632     0.08400
H520        H  0.66333337  0.38608067  0.73787096     0.11200
C521        C  0.31759826  0.22709949  0.65335990    -0.03400
C522        C  0.33592456  0.20717292  0.65500119    -0.06000
C523        C  0.35193056  0.20199903  0.63335818    -0.21100
C524        C  0.35016124  0.21668519  0.60965131     0.24600
C525        C  0.33097990  0.23574235  0.60742179    -0.18700
C526        C  0.31494931  0.24093973  0.62908479    -0.08600
C527        C  0.36900973  0.21200495  0.58806137    -0.18900
C528        C  0.37627128  0.23070733  0.57104558    -0.23700
C529        C  0.39709836  0.22777036  0.55129512     0.26700
C530        C  0.40844219  0.25029797  0.54176535    -0.20500
C531        C  0.42813517  0.24895134  0.52335066    -0.10100
C532        C  0.43695783  0.22497159  0.51368047    -0.10700
C533        C  0.42547388  0.20228628  0.52290842    -0.03600
C534        C  0.40569085  0.20364413  0.54155778    -0.18700
H535        H  0.33852098  0.19608779  0.67335905     0.10400
H536        H  0.36635766  0.18705851  0.63551741     0.10500
H537        H  0.32839349  0.24683684  0.58909622     0.10100
H538        H  0.30091685  0.25626634  0.62703721     0.11200
H539        H  0.37877744  0.19345003  0.58796509     0.11300
H540        H  0.36797602  0.24989443  0.57302673     0.13200
H541        H  0.40216598  0.26912387  0.54876623     0.09700
H542        H  0.43637809  0.26687203  0.51661352     0.11800
H543        H  0.43168546  0.18354500  0.51565476     0.08400
H544        H  0.39700902  0.18584764  0.54789556     0.11200
C545        C  0.22876191  0.32572437  0.65294735    -0.03400
C546        C  0.20403287  0.33480858  0.64729976    -0.06000
C547        C  0.20014822  0.35754733  0.63275248    -0.21100
C548        C  0.22085147  0.37182606  0.62399269     0.24600
C549        C  0.24563578  0.36277686  0.62956532    -0.18700
C550        C  0.24954276  0.33991576  0.64394819    -0.08600
C551        C  0.21612174  0.39471973  0.60693837    -0.18900
C552        C  0.23232185  0.41451596  0.60611388    -0.23700
C553        C  0.23154481  0.43353451  0.58403638     0.26700
C554        C  0.25466533  0.44230617  0.57421831    -0.20500
C555        C  0.25531751  0.45677142  0.55062394    -0.10100
C556        C  0.23276411  0.46298992  0.53657800    -0.10700
C557        C  0.20941358  0.45576460  0.54745378    -0.03600
C558        C  0.20878717  0.44112621  0.57107209    -0.18700
H559        H  0.18762428  0.32417284  0.65381191     0.10400
H560        H  0.18093612  0.36397006  0.62823716     0.10500
H561        H  0.26202587  0.37282492  0.62212251     0.10100
H562        H  0.26879549  0.33327383  0.64782656     0.11200
H563        H  0.19971375  0.39426951  0.59348465     0.11300
H564        H  0.24865834  0.41474652  0.61969078     0.13200
H565        H  0.27239272  0.43673377  0.58399017     0.09700
H566        H  0.27360725  0.46223356  0.54287701     0.11800
H567        H  0.19171916  0.46058150  0.53722342     0.08400
H568        H  0.19060118  0.43523808  0.57871332     0.11200
C569        C  0.32817361  0.31280850  0.71610365    -0.03400
C570        C  0.35424186  0.30749940  0.71371282    -0.06000
C571        C  0.37157137  0.32756753  0.71227496    -0.21100
C572        C  0.36330953  0.35330851  0.71380918     0.24600
C573        C  0.33723530  0.35879931  0.71588320    -0.18700
C574        C  0.31976371  0.33866029  0.71683517    -0.08600
C575        C  0.38243428  0.37387717  0.71264142    -0.18900
C576        C  0.38050806  0.39598682  0.72674699    -0.23700
C577        C  0.40084546  0.41549759  0.72677501     0.26700
C578        C  0.40501564  0.43068216  0.74985190    -0.20500
C579        C  0.42453983  0.44879782  0.75050889    -0.10100
C580        C  0.43984410  0.45231351  0.72784772    -0.10700
C581        C  0.43531463  0.43744319  0.70461581    -0.03600
C582        C  0.41604325  0.41922865  0.70406018    -0.18700
H583        H  0.36127786  0.28778602  0.71269102     0.10400
H584        H  0.39156587  0.32296767  0.71038409     0.10500
H585        H  0.33034388  0.37857408  0.71640069     0.10100
H586        H  0.29975673  0.34329169  0.71838468     0.11200
H587        H  0.39967882  0.36961712  0.70167002     0.11300
H588        H  0.36455221  0.39899512  0.74007840     0.13200
H589        H  0.39336246  0.42827600  0.76748966     0.09700
H590        H  0.42742851  0.46027948  0.76855134     0.11800
H591        H  0.44671192  0.43986820  0.68679609     0.08400
H592        H  0.41285543  0.40840287  0.68565498     0.11200
C593        C  0.95026776  0.94084880  0.67785595    -0.03400
C594        C  0.94053966  0.93120740  0.65333553    -0.06000
C595        C  0.92256024  0.91154957  0.65312455    -0.21100
C596        C  0.91410157  0.90085646  0.67734222     0.24600
C597        C  0.92369410  0.91054647  0.70192251    -0.18700
C598        C  0.94158036  0.93035341  0.70215207    -0.08600
C599        C  0.89385997  0.88114069  0.67619354    -0.18900
C600        C  0.88985944  0.86370729  0.69581638    -0.23700
C601        C  0.86769706  0.84618217  0.69532250     0.26700
C602        C  0.86915746  0.82221994  0.70856829    -0.20500
C603        C  0.84797085  0.80607890  0.70944967    -0.10100
C604        C  0.82479449  0.81384025  0.69742555    -0.10700
C605        C  0.82345307  0.83786490  0.68423320    -0.03600
C606        C  0.84456802  0.85382610  0.68322470    -0.18700
H607        H  0.94673641  0.93890735  0.63424841     0.10400
H608        H  0.91520932  0.90466239  0.63394006     0.10500
H609        H  0.91698264  0.90336470  0.72100116     0.10100
H610        H  0.94854825  0.93748488  0.72138212     0.11200
H611        H  0.88193534  0.88086144  0.65816629     0.11300
H612        H  0.90319802  0.86202453  0.71260945     0.13200
H613        H  0.88669381  0.81603346  0.71831625     0.09700
H614        H  0.84961660  0.78777958  0.71994338     0.11800
H615        H  0.80591392  0.84459613  0.67491357     0.08400
H616        H  0.84242781  0.87251507  0.67364722     0.11200
C617        C  0.94846318  0.05195142  0.67715396    -0.03400
C618        C  0.93954856  0.06320552  0.65296722    -0.06000
C619        C  0.91987496  0.08170649  0.65313182    -0.21100
C620        C  0.90872129  0.08963185  0.67743680     0.24600
C621        C  0.91774873  0.07848696  0.70166222    -0.18700
C622        C  0.93738778  0.06000381  0.70149972    -0.08600
C623        C  0.88691082  0.10839678  0.67660224    -0.18900
C624        C  0.88010136  0.12343801  0.69768507    -0.23700
C625        C  0.85788764  0.14168570  0.69739093     0.26700
C626        C  0.85725838  0.16196179  0.71628986    -0.20500
C627        C  0.83634441  0.17884429  0.71762307    -0.10100
C628        C  0.81522507  0.17562923  0.70035798    -0.10700
C629        C  0.81577297  0.15528803  0.68147219    -0.03600
C630        C  0.83684448  0.13857938  0.67991899    -0.18700
H631        H  0.94763164  0.05757136  0.63384969     0.10400
H632        H  0.91327002  0.08981160  0.63413677     0.10500
H633        H  0.90927309  0.08340208  0.72076435     0.10100
H634        H  0.94359755  0.05167007  0.72051979     0.11200
H635        H  0.87668815  0.11037586  0.65756590     0.11300
H636        H  0.89176433  0.12311860  0.71588237     0.13200
H637        H  0.87301534  0.16470582  0.73021069     0.09700
H638        H  0.83649000  0.19408211  0.73262423     0.11800
H639        H  0.79978908  0.15214820  0.66796186     0.08400
H640        H  0.83619127  0.12285454  0.66554397     0.11200
C641        C  0.05760630  0.05043377  0.67690200    -0.03400
C642        C  0.06568891  0.06048330  0.65216479    -0.06000
C643        C  0.08445568  0.07926207  0.65148753    -0.21100
C644        C  0.09580137  0.08812193  0.67542867     0.24600
C645        C  0.08782141  0.07807396  0.70023192    -0.18700
C646        C  0.06890441  0.05937084  0.70093438    -0.08600
C647        C  0.11477279  0.10890305  0.67381435    -0.18900
C648        C  0.13310755  0.11247235  0.69251881    -0.23700
C649        C  0.15107696  0.13425760  0.69134743     0.26700
C650        C  0.17473586  0.13199053  0.70445070    -0.20500
C651        C  0.19157159  0.15270032  0.70476190    -0.10100
C652        C  0.18491591  0.17616962  0.69211018    -0.10700
C653        C  0.16124396  0.17832321  0.67889898    -0.03600
C654        C  0.14446933  0.15769336  0.67863406    -0.18700
H655        H  0.05736636  0.05401697  0.63327586     0.10400
H656        H  0.09015047  0.08689868  0.63217409     0.10500
H657        H  0.09564754  0.08505387  0.71913223     0.10100
H658        H  0.06301427  0.05205821  0.72030056     0.11200
H659        H  0.11402561  0.12110743  0.65602085     0.11300
H660        H  0.13552021  0.09867082  0.70885499     0.13200
H661        H  0.18012112  0.11421132  0.71463093     0.09700
H662        H  0.20955446  0.15047978  0.71536119     0.11800
H663        H  0.15530981  0.19622385  0.66931552     0.08400
H664        H  0.12604422  0.16055242  0.66919401     0.11200
C665        C  0.23683598  0.56575412  0.49370585    -0.03400
C666        C  0.25978873  0.57770149  0.50069071    -0.06000
C667        C  0.25980748  0.60172754  0.51348798    -0.21100
C668        C  0.23694949  0.61444485  0.51963182     0.24600
C669        C  0.21391075  0.60289213  0.51181709    -0.18700
C670        C  0.21390569  0.57881506  0.49893552    -0.08600
C671        C  0.23832251  0.63810283  0.53661236    -0.18900
C672        C  0.21855072  0.65386394  0.54225157    -0.23700
C673        C  0.21996280  0.67383727  0.56382293     0.26700
C674        C  0.19768420  0.68096090  0.57729648    -0.20500
C675        C  0.19883570  0.69621042  0.60061486    -0.10100
C676        C  0.22234510  0.70461463  0.61080291    -0.10700
C677        C  0.24434555  0.69932093  0.59601903    -0.03600
C678        C  0.24316023  0.68434604  0.57264558    -0.18700
H679        H  0.27779525  0.56823791  0.49683689     0.10400
H680        H  0.27783127  0.61009303  0.51930410     0.10500
H681        H  0.19580913  0.61166646  0.51643907     0.10100
H682        H  0.19588613  0.57011100  0.49376428     0.11200
H683        H  0.25645833  0.64138968  0.54651242     0.11300
H684        H  0.20015843  0.65056904  0.53293525     0.13200
H685        H  0.17950286  0.67354428  0.57064062     0.09700
H686        H  0.18150802  0.70026950  0.61138892     0.11800
H687        H  0.26268063  0.70611513  0.60294805     0.08400
H688        H  0.26060212  0.68059944  0.56204168     0.11200
C689        C  0.31770244  0.77157381  0.63831856    -0.03400
C690        C  0.31199740  0.76385598  0.61173864    -0.06000
C691        C  0.33038611  0.76510910  0.59181642    -0.21100
C692        C  0.35468247  0.77435936  0.59795171     0.24600
C693        C  0.36023479  0.78272071  0.62434464    -0.18700
C694        C  0.34190178  0.78137942  0.64429577    -0.08600
C695        C  0.37430018  0.77316184  0.57696456    -0.18900
C696        C  0.39467037  0.78854449  0.57695811    -0.23700
C697        C  0.41447982  0.78612469  0.55633080     0.26700
C698        C  0.42692251  0.80834758  0.54770787    -0.20500
C699        C  0.44512266  0.80668079  0.52760416    -0.10100
C700        C  0.45148368  0.78263788  0.51610668    -0.10700
C701        C  0.43973800  0.76024529  0.52555429    -0.03600
C702        C  0.42136443  0.76196464  0.54548486    -0.18700
H703        H  0.29360174  0.75603500  0.60648309     0.10400
H704        H  0.32576228  0.75840702  0.57164647     0.10500
H705        H  0.37898730  0.78928266  0.62999003     0.10100
H706        H  0.34698912  0.78727594  0.66460734     0.11200
H707        H  0.37154022  0.75945917  0.56058021     0.11300
H708        H  0.39630920  0.80414914  0.59152118     0.13200
H709        H  0.42209868  0.82709381  0.55607161     0.09700
H710        H  0.45397524  0.82428388  0.52084549     0.11800
H711        H  0.44436590  0.74146140  0.51719046     0.08400
H712        H  0.41263582  0.74437936  0.55243946     0.16800
C713        C  0.31130748  0.69224666  0.70985849    -0.03400
C714        C  0.30856129  0.67173168  0.69142771    -0.06000
C715        C  0.32551992  0.65069484  0.69190766    -0.21100
C716        C  0.34552236  0.64949295  0.71089637     0.24600
C717        C  0.34793640  0.66975016  0.72972744    -0.18700
C718        C  0.33099510  0.69074890  0.72926595    -0.08600
C719        C  0.36435628  0.62780330  0.70929614    -0.18900
C720        C  0.37980806  0.62067852  0.72996807    -0.23700
C721        C  0.39954196  0.59988026  0.72828953     0.26700
C722        C  0.40901449  0.58897604  0.75235906    -0.20500
C723        C  0.42813467  0.57003512  0.75197919    -0.10100
C724        C  0.43841220  0.56155576  0.72745141    -0.10700
C725        C  0.42913501  0.57261497  0.70330943    -0.03600
C726        C  0.40998336  0.59160745  0.70369248    -0.18700
H727        H  0.29375180  0.67225981  0.67608755     0.10400
H728        H  0.32325017  0.63548446  0.67705830     0.10500
H729        H  0.36342856  0.67009963  0.74421905     0.10100
H730        H  0.33391781  0.70628212  0.74360070     0.11200
H731        H  0.36501426  0.61707085  0.69049934     0.11300
H732        H  0.37753230  0.62989163  0.74946278     0.13200
H733        H  0.40155374  0.59512637  0.77161201     0.09700
H734        H  0.43484874  0.56202465  0.77096657     0.11800
H735        H  0.43682536  0.56675201  0.68407625     0.08400
H736        H  0.40386945  0.60005926  0.68473338     0.11200
C737        C  0.17097683  0.79795771  0.69717750    -0.03400
C738        C  0.14476892  0.79420021  0.69357505    -0.06000
C739        C  0.12783093  0.81519775  0.69332639    -0.21100
C740        C  0.13659567  0.84060972  0.69579929     0.24600
C741        C  0.16285045  0.84462635  0.69885910    -0.18700
C742        C  0.17984895  0.82345490  0.69991241    -0.08600
C743        C  0.11757266  0.86210494  0.69679672    -0.18900
C744        C  0.12020062  0.88494872  0.68408972    -0.23700
C745        C  0.09940330  0.90481614  0.68319873     0.26700
C746        C  0.09504971  0.91931212  0.65959486    -0.20500
C747        C  0.07499272  0.93737307  0.65797515    -0.10100
C748        C  0.05923916  0.94186464  0.68022711    -0.10700
C749        C  0.06409414  0.92784272  0.70409352    -0.03600
C750        C  0.08378816  0.90945230  0.70551673    -0.18700
H751        H  0.13720710  0.77487618  0.69179604     0.10400
H752        H  0.10770156  0.81156621  0.69118888     0.10500
H753        H  0.17011381  0.86400450  0.70129532     0.10100
H754        H  0.19989609  0.82699872  0.70293960     0.11200
H755        H  0.09960874  0.85794362  0.70627975     0.11300
H756        H  0.13699235  0.88817251  0.67212467     0.13200
H757        H  0.10690450  0.91628541  0.64217232     0.09700
H758        H  0.07200905  0.94804623  0.63941041     0.11800
H759        H  0.05250481  0.93094271  0.72169918     0.08400
H760        H  0.08695897  0.89906071  0.72421772     0.11200
C761        C  0.05482152  0.69132904  0.90343465    -0.03400
C762        C  0.06335489  0.66739734  0.89339690    -0.06000
C763        C  0.08042800  0.66643164  0.87215139    -0.21100
C764        C  0.08945127  0.68931851  0.86091330     0.24600
C765        C  0.08038163  0.71324298  0.87042734    -0.18700
C766        C  0.06329115  0.71422737  0.89155288    -0.08600
C767        C  0.10804525  0.68792283  0.83901877    -0.18900
C768        C  0.12603649  0.70588526  0.83652204    -0.23700
C769        C  0.14396225  0.70677400  0.81395504     0.26700
C770        C  0.16558411  0.72203465  0.81700761    -0.20500
C771        C  0.18155127  0.72603926  0.79533934    -0.10100
C772        C  0.17606200  0.71502135  0.76999942    -0.10700
C773        C  0.15495084  0.69887023  0.76718468    -0.03600
C774        C  0.13895398  0.69483105  0.78894991    -0.18700
H775        H  0.05703338  0.64942561  0.90209366     0.10400
H776        H  0.08699853  0.64782518  0.86484332     0.10500
H777        H  0.08632313  0.73122281  0.86145045     0.10100
H778        H  0.05682988  0.73294597  0.89864146     0.11200
H779        H  0.10743391  0.67137040  0.82557832     0.11300
H780        H  0.12784595  0.72076933  0.85190443     0.13200
H781        H  0.16977877  0.73148385  0.83604941     0.09700
H782        H  0.19771415  0.73854561  0.79827739     0.11800
H783        H  0.15021657  0.69015774  0.74791869     0.08400
H784        H  0.12215171  0.68338874  0.78563509     0.11200
C785        C  0.94806848  0.69369640  0.91626260    -0.03400
C786        C  0.93865803  0.67028041  0.90596893    -0.06000
C787        C  0.91902917  0.67029385  0.88668659    -0.21100
C788        C  0.90860899  0.69366449  0.87714537     0.24600
C789        C  0.91726329  0.71702753  0.88832622    -0.18700
C790        C  0.93683263  0.71702716  0.90756728    -0.08600
C791        C  0.88858010  0.69312343  0.85580817    -0.18900
C792        C  0.88540651  0.71242979  0.83779833    -0.23700
C793        C  0.86515550  0.71340960  0.81664622     0.26700
C794        C  0.85993055  0.73724240  0.80415357    -0.20500
C795        C  0.84050026  0.73964549  0.78489333    -0.10100
C796        C  0.82588302  0.71815396  0.77748076    -0.10700
C797        C  0.83165504  0.69404603  0.78925817    -0.03600
C798        C  0.85108471  0.69165592  0.80861766    -0.18700
H799        H  0.94677021  0.65195932  0.91241521     0.10400
H800        H  0.91239393  0.65202969  0.87870749     0.10500
H801        H  0.90891043  0.73537126  0.88238203     0.10100
H802        H  0.94330983  0.73537964  0.91544892     0.11200
H803        H  0.87670284  0.67616625  0.85484153     0.11300
H804        H  0.89802113  0.72886852  0.83883759     0.13200
H805        H  0.87063284  0.75425806  0.80969340     0.09700
H806        H  0.83674549  0.75845857  0.77606365     0.11800
H807        H  0.82091720  0.67703978  0.78381014     0.08400
H808        H  0.85492013  0.67274365  0.81702773     0.11200
C809        C  0.74175625  0.81265605  0.76724823    -0.03400
C810        C  0.72160809  0.83069793  0.76721722    -0.06000
C811        C  0.71800413  0.84736701  0.78915874    -0.21100
C812        C  0.73462537  0.84674457  0.81152349     0.24600
C813        C  0.75400167  0.82779139  0.81222060    -0.18700
C814        C  0.75749177  0.81095532  0.79035503    -0.08600
C815        C  0.73135319  0.86639036  0.83337249    -0.18900
C816        C  0.75066139  0.87457420  0.84928396    -0.23700
C817        C  0.74863322  0.89588380  0.86957045     0.26700
C818        C  0.77107014  0.90764675  0.87865791    -0.20500
C819        C  0.77046121  0.92760791  0.89769633    -0.10100
C820        C  0.74733982  0.93634454  0.90838717    -0.10700
C821        C  0.72479799  0.92450214  0.89949615    -0.03600
C822        C  0.72540754  0.90445985  0.88035763    -0.18700
H823        H  0.70895260  0.83240303  0.74991636     0.10400
H824        H  0.70267370  0.86144879  0.78821801     0.10500
H825        H  0.76663729  0.82598411  0.82949522     0.10100
H826        H  0.77307573  0.79716912  0.79120931     0.11200
H827        H  0.71296254  0.87585316  0.83469634     0.11300
H828        H  0.76947321  0.86649694  0.84616419     0.13200
H829        H  0.78924879  0.90144328  0.87087400     0.09700
H830        H  0.78821634  0.93617516  0.90406705     0.11800
H831        H  0.70667303  0.93057342  0.90749004     0.08400
H832        H  0.70770864  0.89555779  0.87448860     0.11200
C833        C  0.74512736  0.04794574  0.90672122    -0.03400
C834        C  0.76791797  0.05752219  0.89643513    -0.06000
C835        C  0.76771468  0.07729796  0.87720565    -0.21100
C836        C  0.74478079  0.08805831  0.86754429     0.24600
C837        C  0.72187773  0.07831280  0.87759445    -0.18700
C838        C  0.72208725  0.05846305  0.89690263    -0.08600
C839        C  0.74592806  0.10991179  0.84786613    -0.18900
C840        C  0.72618334  0.11847202  0.83259413    -0.23700
C841        C  0.72848459  0.13951601  0.81220552     0.26700
C842        C  0.71252457  0.13928169  0.78932963    -0.20500
C843        C  0.71523234  0.15759670  0.76882493    -0.10100
C844        C  0.73377883  0.17692288  0.77084273    -0.10700
C845        C  0.74873825  0.17812076  0.79453743    -0.03600
C846        C  0.74616622  0.15961699  0.81496394    -0.18700
H847        H  0.78604132  0.04991405  0.90343948     0.10400
H848        H  0.78566271  0.08433636  0.86994384     0.10500
H849        H  0.70375075  0.08625769  0.87119169     0.10100
H850        H  0.70417845  0.05161104  0.90442201     0.11200
H851        H  0.76436156  0.11860826  0.84503672     0.11300
H852        H  0.70816269  0.10861174  0.83341838     0.13200
H853        H  0.69848540  0.12428723  0.78684151     0.09700
H854        H  0.70324518  0.15611966  0.75099564     0.11800
H855        H  0.76310626  0.19279548  0.79689821     0.08400
H856        H  0.75817948  0.16100589  0.83275939     0.11200
C857        C  0.95958158  0.29180750  0.89933746    -0.03400
C858        C  0.94628354  0.31473711  0.89307801    -0.06000
C859        C  0.92668291  0.31468537  0.87382558    -0.21100
C860        C  0.92018335  0.29184634  0.86019683     0.24600
C861        C  0.93363718  0.26892355  0.86635653    -0.18700
C862        C  0.95313324  0.26895640  0.88567203    -0.08600
C863        C  0.89824900  0.29238197  0.84112533    -0.18900
C864        C  0.89427178  0.27435078  0.82194867    -0.23700
C865        C  0.87085749  0.27358291  0.80510554     0.26700
C866        C  0.86248096  0.24961013  0.79542419    -0.20500
C867        C  0.83963312  0.24777092  0.78101064    -0.10100
C868        C  0.82487508  0.26999641  0.77565414    -0.10700
C869        C  0.83381734  0.29415321  0.78435724    -0.03600
C870        C  0.85658078  0.29595786  0.79891692    -0.18700
H871        H  0.95067888  0.33262380  0.90342007     0.10400
H872        H  0.91642986  0.33252788  0.86969143     0.10500
H873        H  0.92875409  0.25070078  0.85706809     0.10100
H874        H  0.96294154  0.25094658  0.89015596     0.11200
H875        H  0.88456825  0.30797995  0.84363353     0.11300
H876        H  0.90781231  0.25865940  0.81937256     0.13200
H877        H  0.87332565  0.23214569  0.79963647     0.09700
H878        H  0.83347043  0.22891900  0.77420974     0.11800
H879        H  0.82307676  0.31168327  0.78020013     0.08400
H880        H  0.86291631  0.31489386  0.80514956     0.11200
C881        C  0.06758539  0.28984826  0.90194346    -0.03400
C882        C  0.07524538  0.31264597  0.88909962    -0.06000
C883        C  0.09288534  0.31167834  0.86819439    -0.21100
C884        C  0.10356351  0.28801108  0.85997289     0.24600
C885        C  0.09608261  0.26524029  0.87299153    -0.18700
C886        C  0.07834094  0.26617224  0.89369791    -0.08600
C887        C  0.12122242  0.28744248  0.83677773    -0.18900
C888        C  0.13934347  0.26911693  0.83378158    -0.23700
C889        C  0.15615549  0.26730739  0.80994864     0.26700
C890        C  0.17953873  0.25426729  0.81258022    -0.20500
C891        C  0.19499166  0.25028882  0.79018794    -0.10100
C892        C  0.18727356  0.25905435  0.76450074    -0.10700
C893        C  0.16404735  0.27255934  0.76196014    -0.03600
C894        C  0.14863367  0.27658645  0.78437913    -0.18700
H895        H  0.06726807  0.33118590  0.89484643     0.10400
H896        H  0.09815665  0.32947389  0.85833895     0.10500
H897        H  0.10328762  0.24655522  0.86671066     0.10100
H898        H  0.07278103  0.24820712  0.90299934     0.11200
H899        H  0.11962021  0.30303001  0.82220048     0.11300
H900        H  0.14249179  0.25506344  0.84975620     0.13200
H901        H  0.18572266  0.24679369  0.83200567     0.09700
H902        H  0.21271253  0.23979182  0.79291808     0.11800
H903        H  0.15734905  0.27936087  0.74245887     0.08400
H904        H  0.13044887  0.28608619  0.78135615     0.11200
C905        C  0.27024083  0.02730237  0.88712035    -0.03400
C906        C  0.24699509  0.03392791  0.87460402    -0.06000
C907        C  0.24636720  0.05041855  0.85237282    -0.21100
C908        C  0.26888905  0.06072257  0.84253751     0.24600
C909        C  0.29224127  0.05270762  0.85386162    -0.18700
C910        C  0.29289185  0.03621858  0.87604289    -0.08600
C911        C  0.26734524  0.08107319  0.82177320    -0.18900
C912        C  0.28360789  0.10091337  0.82186129    -0.23700
C913        C  0.28107416  0.12356726  0.80393547     0.26700
C914        C  0.30246885  0.13890763  0.80001045    -0.20500
C915        C  0.30078338  0.16117191  0.78429395    -0.10100
C916        C  0.27752331  0.16866315  0.77245648    -0.10700
C917        C  0.25601404  0.15342410  0.77655413    -0.03600
C918        C  0.25773073  0.13110025  0.79218399    -0.18700
H919        H  0.22923178  0.02705798  0.88248546     0.10400
H920        H  0.22820039  0.05612580  0.84367985     0.10500
H921        H  0.30999998  0.05954433  0.84597232     0.10100
H922        H  0.31110898  0.03105772  0.88494953     0.11200
H923        H  0.25137347  0.08070355  0.80777328     0.11300
H924        H  0.29925859  0.10110732  0.83631889     0.13200
H925        H  0.32056376  0.13364769  0.80917020     0.09700
H926        H  0.31765461  0.17260867  0.78160732     0.11800
H927        H  0.23780388  0.15875394  0.76771816     0.08400
H928        H  0.24059656  0.12031846  0.79548784     0.11200
C929        C  0.27400005  0.92000882  0.91649706    -0.03400
C930        C  0.29748003  0.90935998  0.90900987    -0.06000
C931        C  0.29859772  0.88593681  0.89518225    -0.21100
C932        C  0.27635684  0.87254564  0.88874674     0.24600
C933        C  0.25279828  0.88305671  0.89640716    -0.18700
C934        C  0.25167016  0.90656881  0.91021169    -0.08600
C935        C  0.27847001  0.84936574  0.87145808    -0.18900
C936        C  0.26027979  0.83147949  0.86881108    -0.23700
C937        C  0.26052504  0.81291884  0.84614519     0.26700
C938        C  0.23748887  0.80707694  0.83326799    -0.20500
C939        C  0.23734959  0.79475324  0.80823772    -0.10100
C940        C  0.26030453  0.78789273  0.79583769    -0.10700
C941        C  0.28321021  0.79133380  0.81008697    -0.03600
C942        C  0.28332317  0.80364619  0.83512661    -0.18700
H943        H  0.31503249  0.91925927  0.91353605     0.10400
H944        H  0.31691855  0.87840545  0.88914579     0.10500
H945        H  0.23515497  0.87379994  0.89098847     0.10100
H946        H  0.23329058  0.91436749  0.91563842     0.11200
H947        H  0.29515518  0.84817535  0.85889600     0.11300
H948        H  0.24333582  0.83263986  0.88095274     0.13200
H949        H  0.21967532  0.81365562  0.84164981     0.09700
H950        H  0.21931327  0.79168340  0.79808070     0.11800
H951        H  0.30113747  0.78555594  0.80140513     0.08400
H952        H  0.30133548  0.80685247  0.84524696     0.11200
C953        C  0.43561022  0.77572584  0.40535019    -0.03400
C954        C  0.42308687  0.75193595  0.40329692    -0.06000
C955        C  0.40197356  0.74916118  0.38638210    -0.21100
C956        C  0.39280761  0.76998566  0.37088314     0.24600
C957        C  0.40474791  0.79417096  0.37366756    -0.18700
C958        C  0.42595678  0.79696393  0.39075924    -0.08600
C959        C  0.37149275  0.76490786  0.35160301    -0.18900
C960        C  0.36350778  0.78137386  0.33216417    -0.23700
C961        C  0.34499977  0.77412647  0.31056043     0.26700
C962        C  0.34513238  0.78801913  0.28628366    -0.20500
C963        C  0.32969991  0.78068875  0.26452516    -0.10100
C964        C  0.31357807  0.75930638  0.26656662    -0.10700
C965        C  0.31253017  0.74610227  0.29129191    -0.03600
C966        C  0.32796081  0.75347792  0.31310160    -0.18700
H967        H  0.42975488  0.73524454  0.41459496     0.10400
H968        H  0.39310566  0.73039384  0.38496895     0.10500
H969        H  0.39809428  0.81098873  0.36270954     0.10100
H970        H  0.43506630  0.81559500  0.39215611     0.11200
H971        H  0.36348709  0.74569956  0.35223612     0.11300
H972        H  0.37237722  0.80005815  0.33025265     0.13200
H973        H  0.35782332  0.80416532  0.28382778     0.09700
H974        H  0.33087370  0.79145879  0.24587881     0.11800
H975        H  0.30009365  0.72975162  0.29368564     0.08400
H976        H  0.32645608  0.74284029  0.33175000     0.11200
C977        C  0.24242487  0.52308906  0.38814471    -0.03400
C978        C  0.26590535  0.53190347  0.37894455    -0.06000
C979        C  0.26740062  0.54495043  0.35443259    -0.21100
C980        C  0.24549188  0.54947198  0.33877126     0.24600
C981        C  0.22235149  0.53890828  0.34697385    -0.18700
C982        C  0.22081578  0.52601106  0.37156442    -0.08600
C983        C  0.24709580  0.56733179  0.31561571    -0.18900
C984        C  0.22763673  0.58303366  0.30861781    -0.23700
C985        C  0.23010813  0.60605408  0.29124252     0.26700
C986        C  0.20782726  0.61795522  0.28146711    -0.20500
C987        C  0.20868615  0.64198009  0.26887521    -0.10100
C988        C  0.23190744  0.65465238  0.26596341    -0.10700
C989        C  0.25438247  0.64225326  0.27461003    -0.03600
C990        C  0.25352445  0.61822460  0.28723948    -0.18700
H991        H  0.28296115  0.52967355  0.39116788     0.10400
H992        H  0.28547355  0.55271098  0.34839509     0.10500
H993        H  0.20528046  0.54106010  0.33480961     0.10100
H994        H  0.20259178  0.51885900  0.37786119     0.11200
H995        H  0.26554003  0.56976953  0.30659323     0.11300
H996        H  0.20931756  0.58054485  0.31793393     0.13200
H997        H  0.18956770  0.60903043  0.28441598     0.09700
H998        H  0.19106327  0.65093826  0.26215033     0.11800
H999        H  0.27259342  0.65148441  0.27243774     0.08400
H1000       H  0.27111632  0.61011176  0.29498657     0.11200
C1001       C  0.32261274  0.67342382  0.19604860    -0.03400
C1002       C  0.31706234  0.64848126  0.20542327    -0.06000
C1003       C  0.33497518  0.62852248  0.20333098    -0.21100
C1004       C  0.35854711  0.63307142  0.19157388     0.24600
C1005       C  0.36410594  0.65800813  0.18229692    -0.18700
C1006       C  0.34630133  0.67791259  0.18441942    -0.08600
C1007       C  0.37764408  0.61201573  0.19064033    -0.18900
C1008       C  0.39572708  0.61108807  0.17179693    -0.23700
C1009       C  0.41653849  0.59179511  0.17211059     0.26700
C1010       C  0.42846290  0.58555579  0.14782255    -0.20500
C1011       C  0.44880539  0.56810827  0.14753207    -0.10100
C1012       C  0.45780809  0.55692018  0.17165849    -0.10700
C1013       C  0.44610497  0.56349668  0.19604092    -0.03600
C1014       C  0.42567525  0.58078416  0.19629430    -0.18700
H1015       H  0.29902526  0.64443697  0.21465350     0.10400
H1016       H  0.33044265  0.60951289  0.21091695     0.10500
H1017       H  0.38245326  0.66245011  0.17405533     0.10100
H1018       H  0.35129502  0.69693422  0.17724993     0.11200
H1019       H  0.37652177  0.59680028  0.20563120     0.11300
H1020       H  0.39513188  0.62473955  0.15517492     0.13200
H1021       H  0.42192717  0.59411224  0.12901398     0.09700
H1022       H  0.45749416  0.56343622  0.12844116     0.11800
H1023       H  0.45266072  0.55521752  0.21496683     0.08400
H1024       H  0.41748933  0.58586743  0.21550551     0.11200
C1025       C  0.27216173  0.94835125  0.02609053    -0.03400
C1026       C  0.29498166  0.93903372  0.03749864    -0.06000
C1027       C  0.29467854  0.92382452  0.06067919    -0.21100
C1028       C  0.27161133  0.91753307  0.07263456     0.24600
C1029       C  0.24888404  0.92791891  0.06203923    -0.18700
C1030       C  0.24917143  0.94313029  0.03890521    -0.08600
C1031       C  0.27191011  0.89899290  0.09516582    -0.18900
C1032       C  0.25318205  0.88193527  0.09867896    -0.23700
C1033       C  0.25530903  0.86001810  0.11763859     0.26700
C1034       C  0.23308284  0.84821893  0.12642087    -0.20500
C1035       C  0.23443588  0.82636856  0.14284151    -0.10100
C1036       C  0.25811925  0.81583045  0.15056428    -0.10700
C1037       C  0.28034551  0.82767148  0.14178538    -0.03600
C1038       C  0.27898719  0.84943933  0.12536201    -0.18700
H1039       H  0.31299852  0.94292477  0.02816112     0.10400
H1040       H  0.31241516  0.91612547  0.06869150     0.10500
H1041       H  0.23086674  0.92416246  0.07139696     0.10100
H1042       H  0.23132114  0.95046964  0.03084436     0.11200
H1043       H  0.28904819  0.89788681  0.10747147     0.11300
H1044       H  0.23606519  0.88312571  0.08630812     0.13200
H1045       H  0.21464287  0.85583300  0.12041077     0.09700
H1046       H  0.21694428  0.81764262  0.14930004     0.11800
H1047       H  0.29885162  0.81983648  0.14716405     0.08400
H1048       H  0.29655811  0.85726147  0.11809952     0.11200
C1049       C  0.06844941  0.69612414  0.01764396    -0.03400
C1050       C  0.08465312  0.67457960  0.02096920    -0.06000
C1051       C  0.10430918  0.67502484  0.04021582    -0.21100
C1052       C  0.10747728  0.69666873  0.05690181     0.24600
C1053       C  0.09158961  0.71835549  0.05323807    -0.18700
C1054       C  0.07239012  0.71816297  0.03364267    -0.08600
C1055       C  0.12727316  0.69663545  0.07824103    -0.18900
C1056       C  0.12194667  0.70507395  0.10318651    -0.23700
C1057       C  0.14117307  0.70801883  0.12490954     0.26700
C1058       C  0.13336587  0.70670261  0.15177715    -0.20500
C1059       C  0.15019061  0.71249602  0.17284365    -0.10100
C1060       C  0.17507435  0.72025470  0.16740261    -0.10700
C1061       C  0.18308366  0.72098585  0.14046401    -0.03600
C1062       C  0.16632173  0.71480907  0.11939359    -0.18700
H1063       H  0.08209136  0.65742073  0.00873584     0.10400
H1064       H  0.11654870  0.65822463  0.04263804     0.10500
H1065       H  0.09404599  0.73546624  0.06557830     0.10100
H1066       H  0.06019343  0.73502805  0.03150882     0.11200
H1067       H  0.14598258  0.68900366  0.07362151     0.11300
H1068       H  0.10243781  0.71013622  0.10794357     0.13200
H1069       H  0.11401017  0.70168821  0.15644875     0.09700
H1070       H  0.14340491  0.71178697  0.19334809     0.11800
H1071       H  0.20214930  0.72686065  0.13562266     0.08400
H1072       H  0.17273701  0.71654275  0.09883299     0.11200
C1073       C  0.77754119  0.54281861  0.40175397    -0.03400
C1074       C  0.75671532  0.54449589  0.38387700    -0.06000
C1075       C  0.75654403  0.56230915  0.36271362    -0.21100
C1076       C  0.77686449  0.57925956  0.35934235     0.24600
C1077       C  0.79776430  0.57763334  0.37721557    -0.18700
C1078       C  0.79815134  0.55944782  0.39812426    -0.08600
C1079       C  0.77596949  0.59763112  0.33636920    -0.18900
C1080       C  0.78709874  0.62095981  0.33687250    -0.23700
C1081       C  0.78470569  0.63934357  0.31396212     0.26700
C1082       C  0.78322442  0.66601882  0.31906423    -0.20500
C1083       C  0.77961461  0.68359150  0.29782246    -0.10100
C1084       C  0.77816609  0.67480823  0.27100661    -0.10700
C1085       C  0.78069900  0.64816297  0.26590191    -0.03600
C1086       C  0.78380843  0.63062178  0.28711380    -0.18700
H1087       H  0.74067266  0.53178333  0.38603549     0.10400
H1088       H  0.74034839  0.56302084  0.34904694     0.10500
H1089       H  0.81400713  0.59000041  0.37476971     0.10100
H1090       H  0.81448217  0.55853520  0.41158555     0.11200
H1091       H  0.76426723  0.59238996  0.31904618     0.11300
H1092       H  0.79658213  0.62752224  0.35517630     0.13200
H1093       H  0.78412991  0.67319972  0.33958458     0.09700
H1094       H  0.77783241  0.70400510  0.30236380     0.11800
H1095       H  0.77959213  0.64075465  0.24548152     0.08400
H1096       H  0.78555960  0.61023855  0.28244793     0.11200
C1097       C  0.68523975  0.76511411  0.27697144    -0.03400
C1098       C  0.67538274  0.74175039  0.28646462    -0.06000
C1099       C  0.65203663  0.74136357  0.29928621    -0.21100
C1100       C  0.63813582  0.76427221  0.30308920     0.24600
C1101       C  0.64762606  0.78761139  0.29296171    -0.18700
C1102       C  0.67101786  0.78800996  0.28011549    -0.08600
C1103       C  0.61421606  0.76287562  0.31825536    -0.18900
C1104       C  0.60445192  0.78298411  0.33194430    -0.23700
C1105       C  0.58276791  0.78046982  0.35034004     0.26700
C1106       C  0.56824714  0.80253573  0.35618129    -0.20500
C1107       C  0.54927977  0.80158669  0.37546836    -0.10100
C1108       C  0.54462700  0.77854615  0.38948232    -0.10700
C1109       C  0.55866181  0.75623557  0.38312356    -0.03600
C1110       C  0.57768244  0.75719721  0.36384883    -0.18700
H1111       H  0.68574261  0.72372360  0.28411132     0.10400
H1112       H  0.64503637  0.72313516  0.30675018     0.10500
H1113       H  0.63707159  0.80555103  0.29465526     0.10100
H1114       H  0.67791983  0.80625280  0.27261049     0.11200
H1115       H  0.60532941  0.74409742  0.31958574     0.11300
H1116       H  0.61303365  0.80189718  0.33060880     0.13200
H1117       H  0.57193074  0.82069178  0.34616385     0.09700
H1118       H  0.53870796  0.81910477  0.37990054     0.11800
H1119       H  0.55570198  0.73831614  0.39384824     0.08400
H1120       H  0.58905031  0.73999087  0.36058635     0.11200
C1121       C  0.56808082  0.55680302  0.16893302    -0.03400
C1122       C  0.57952690  0.56383579  0.14460758    -0.06000
C1123       C  0.59960627  0.58137999  0.14455724    -0.21100
C1124       C  0.60843667  0.59253729  0.16871522     0.24600
C1125       C  0.59694077  0.58549385  0.19304770    -0.18700
C1126       C  0.57698532  0.56793299  0.19311447    -0.08600
C1127       C  0.63034651  0.61047756  0.16806344    -0.18900
C1128       C  0.63430953  0.62878318  0.18701537    -0.23700
C1129       C  0.65654169  0.64636168  0.18803951     0.26700
C1130       C  0.65580209  0.66739442  0.20594532    -0.20500
C1131       C  0.67670619  0.68353120  0.20923710    -0.10100
C1132       C  0.69905426  0.67903165  0.19471563    -0.10700
C1133       C  0.69970657  0.65825909  0.17637144    -0.03600
C1134       C  0.67874583  0.64204711  0.17310297    -0.18700
H1135       H  0.57322022  0.55551911  0.12565147     0.10400
H1136       H  0.60827804  0.58626707  0.12557096     0.10500
H1137       H  0.60369582  0.59292011  0.21220988     0.10100
H1138       H  0.56874868  0.56282506  0.21225574     0.11200
H1139       H  0.64293648  0.60889992  0.15101873     0.11300
H1140       H  0.62025702  0.63147623  0.20260016     0.13200
H1141       H  0.63905139  0.67117299  0.21780648     0.09700
H1142       H  0.67545852  0.69928597  0.22358302     0.11800
H1143       H  0.71664740  0.65412007  0.16496471     0.08400
H1144       H  0.68045180  0.62582587  0.15947810     0.11200
C1145       C  0.96331413  0.69832887  0.03101232    -0.03400
C1146       C  0.95399685  0.67562487  0.04258206    -0.06000
C1147       C  0.93729079  0.67699577  0.06408698    -0.21100
C1148       C  0.92992015  0.70099906  0.07465013     0.24600
C1149       C  0.93955047  0.72375153  0.06339349    -0.18700
C1150       C  0.95616001  0.72239649  0.04180003    -0.08600
C1151       C  0.91077168  0.70161780  0.09603724    -0.18900
C1152       C  0.90899754  0.72087066  0.11413422    -0.23700
C1153       C  0.88812546  0.72253046  0.13364591     0.26700
C1154       C  0.88025627  0.74699057  0.14257717    -0.20500
C1155       C  0.85913727  0.74955494  0.15902805    -0.10100
C1156       C  0.84572035  0.72760293  0.16707563    -0.10700
C1157       C  0.85439654  0.70300980  0.15927773    -0.03600
C1158       C  0.87546409  0.70046238  0.14278327    -0.18700
H1159       H  0.95922269  0.65680172  0.03472025     0.10400
H1160       H  0.92992781  0.65926075  0.07238001     0.10500
H1161       H  0.93364732  0.74262307  0.07050291     0.10100
H1162       H  0.96301081  0.74023078  0.03325337     0.11200
H1163       H  0.89745960  0.68576975  0.09633994     0.11300
H1164       H  0.92229036  0.73674861  0.11366774     0.13200
H1165       H  0.88993677  0.76421998  0.13604883     0.09700
H1166       H  0.85303828  0.76875567  0.16500095     0.11800
H1167       H  0.84457339  0.68573677  0.16540147     0.08400
H1168       H  0.88162964  0.68121055  0.13719810     0.11200
C1169       C  0.74942310  0.81600028  0.16484780    -0.03400
C1170       C  0.72921259  0.83396814  0.16486541    -0.06000
C1171       C  0.72511633  0.85061969  0.14299247    -0.21100
C1172       C  0.74124214  0.84996854  0.12070826     0.24600
C1173       C  0.76069698  0.83114589  0.12001636    -0.18700
C1174       C  0.76473992  0.81437640  0.14185392    -0.08600
C1175       C  0.73732892  0.86937054  0.09881816    -0.18900
C1176       C  0.75639535  0.87817434  0.08356031    -0.23700
C1177       C  0.75347493  0.89904293  0.06296371     0.26700
C1178       C  0.77528639  0.91196678  0.05456901    -0.20500
C1179       C  0.77374233  0.93134205  0.03495575    -0.10100
C1180       C  0.75028868  0.93828505  0.02307991    -0.10700
C1181       C  0.72838160  0.92541758  0.03146373    -0.03600
C1182       C  0.72993631  0.90593944  0.05108937    -0.18700
H1183       H  0.71695865  0.83573202  0.18214125     0.10400
H1184       H  0.70979215  0.86468740  0.14390487     0.10500
H1185       H  0.77293647  0.82941430  0.10274828     0.10100
H1186       H  0.78032516  0.80061566  0.14100411     0.11200
H1187       H  0.71861617  0.87812663  0.09691583     0.11300
H1188       H  0.77549380  0.87090685  0.08739347     0.13200
H1189       H  0.79367287  0.90707117  0.06326126     0.09700
H1190       H  0.79100923  0.94085129  0.02905627     0.11800
H1191       H  0.71004787  0.93013367  0.02257135     0.08400
H1192       H  0.71273398  0.89607327  0.05640446     0.11200
C1193       C  0.68042541  0.22468216  0.27589626    -0.03400
C1194       C  0.67144673  0.20047449  0.28410278    -0.06000
C1195       C  0.65060608  0.19872996  0.30104711    -0.21100
C1196       C  0.63830772  0.22106625  0.31046006     0.24600
C1197       C  0.64700026  0.24538040  0.30200564    -0.18700
C1198       C  0.66786741  0.24714012  0.28491891    -0.08600
C1199       C  0.61622967  0.21791237  0.32849120    -0.18900
C1200       C  0.60831928  0.23616959  0.34593631    -0.23700
C1201       C  0.58684669  0.23278167  0.36481713     0.26700
C1202       C  0.57649053  0.25489988  0.37697926    -0.20500
C1203       C  0.55700179  0.25287567  0.39561306    -0.10100
C1204       C  0.54739365  0.22858551  0.40275751    -0.10700
C1205       C  0.55757302  0.20637291  0.39051663    -0.03600
C1206       C  0.57715482  0.20839584  0.37181664    -0.18700
H1207       H  0.68058185  0.18276442  0.27752048     0.10400
H1208       H  0.64421966  0.17978021  0.30707700     0.10500
H1209       H  0.63758122  0.26306136  0.30811008     0.10100
H1210       H  0.67416577  0.26608955  0.27880487     0.11200
H1211       H  0.60676184  0.19943009  0.32768809     0.11300
H1212       H  0.61801614  0.25455971  0.34671284     0.13200
H1213       H  0.58357965  0.27389827  0.37211852     0.09700
H1214       H  0.54961087  0.27044534  0.40459312     0.11800
H1215       H  0.55067020  0.18738932  0.39567046     0.08400
H1216       H  0.58491698  0.19072636  0.36356468     0.11200
C1217       C  0.77421487  0.31091338  0.26562992    -0.03400
C1218       C  0.79430381  0.32854406  0.26425963    -0.06000
C1219       C  0.80019574  0.34455259  0.28623499    -0.21100
C1220       C  0.78606014  0.34353225  0.31001571     0.24600
C1221       C  0.76686550  0.32489030  0.31192990    -0.18700
C1222       C  0.76097562  0.30887792  0.28997974    -0.08600
C1223       C  0.79148403  0.36255944  0.33200726    -0.18900
C1224       C  0.77374442  0.37043559  0.34970597    -0.23700
C1225       C  0.77699777  0.39115513  0.37052443     0.26700
C1226       C  0.75612411  0.39701374  0.38681051    -0.20500
C1227       C  0.75712207  0.41705082  0.40566369    -0.10100
C1228       C  0.77914293  0.43185287  0.40902630    -0.10700
C1229       C  0.80041005  0.42569469  0.39334639    -0.03600
C1230       C  0.79936236  0.40562310  0.37419329    -0.18700
H1231       H  0.80504601  0.33053068  0.24592628     0.10400
H1232       H  0.81531174  0.35842961  0.28429445     0.10500
H1233       H  0.75620927  0.32263771  0.33025120     0.10100
H1234       H  0.74563632  0.29526423  0.29193517     0.11200
H1235       H  0.80999545  0.37145305  0.33216362     0.11300
H1236       H  0.75498981  0.36207367  0.34818302     0.13200
H1237       H  0.73868904  0.38623956  0.38470163     0.09700
H1238       H  0.74046185  0.42101904  0.41758883     0.11800
H1239       H  0.81765909  0.43674478  0.39546919     0.08400
H1240       H  0.81599549  0.40190528  0.36226316     0.11200
C1241       C  0.56505414  0.44605573  0.17155688    -0.03400
C1242       C  0.57198487  0.43358214  0.14751877    -0.06000
C1243       C  0.58929628  0.41299052  0.14810743    -0.21100
C1244       C  0.59963372  0.40434296  0.17270397     0.24600
C1245       C  0.59276540  0.41683620  0.19672313    -0.18700
C1246       C  0.57562613  0.43747133  0.19614050    -0.08600
C1247       C  0.61913801  0.38375779  0.17266898    -0.18900
C1248       C  0.62295045  0.36769756  0.19362723    -0.23700
C1249       C  0.64501405  0.35002678  0.19494158     0.26700
C1250       C  0.64299658  0.32609267  0.20789032    -0.20500
C1251       C  0.66394925  0.30938960  0.20952412    -0.10100
C1252       C  0.68732421  0.31671209  0.19868608    -0.10700
C1253       C  0.68940565  0.34101045  0.18641930    -0.03600
C1254       C  0.66846910  0.35748876  0.18453312    -0.18700
H1255       H  0.56409125  0.43974062  0.12827510     0.10400
H1256       H  0.59463283  0.40378460  0.12934981     0.10500
H1257       H  0.60111757  0.41118737  0.21591199     0.10100
H1258       H  0.57078588  0.44678756  0.21498300     0.11200
H1259       H  0.63089490  0.38195352  0.15490989     0.11300
H1260       H  0.60967451  0.36748221  0.21019500     0.13200
H1261       H  0.62515544  0.32024261  0.21646575     0.09700
H1262       H  0.66191967  0.29089338  0.21943702     0.11800
H1263       H  0.70721825  0.34729642  0.17813636     0.08400
H1264       H  0.67080127  0.37626936  0.17533560     0.11200
C1265       C  0.74799736  0.04885192  0.02213086    -0.03400
C1266       C  0.77113394  0.05997526  0.03006965    -0.06000
C1267       C  0.77191611  0.07937379  0.04970767    -0.21100
C1268       C  0.74966448  0.08829276  0.06209972     0.24600
C1269       C  0.72641137  0.07704340  0.05431653    -0.18700
C1270       C  0.72563748  0.05756964  0.03455545    -0.08600
C1271       C  0.75210081  0.10921047  0.08283918    -0.18900
C1272       C  0.73276551  0.12003490  0.09661201    -0.23700
C1273       C  0.73669203  0.14016732  0.11783604     0.26700
C1274       C  0.71941390  0.14205472  0.13907446    -0.20500
C1275       C  0.72329964  0.15963216  0.16021700    -0.10100
C1276       C  0.74439940  0.17609447  0.16041479    -0.10700
C1277       C  0.76100961  0.17509731  0.13844904    -0.03600
C1278       C  0.75721614  0.15738164  0.11741477    -0.18700
H1279       H  0.78875786  0.05378112  0.02100812     0.10400
H1280       H  0.79012382  0.08751746  0.05519479     0.10500
H1281       H  0.70872625  0.08305528  0.06321595     0.10100
H1282       H  0.70749595  0.04933544  0.02901480     0.11200
H1283       H  0.77123249  0.11558216  0.08742334     0.11300
H1284       H  0.71359721  0.11317768  0.09358686     0.13200
H1285       H  0.70324832  0.12931919  0.13974432     0.09700
H1286       H  0.71002088  0.15994195  0.17669516     0.11800
H1287       H  0.77736950  0.18756606  0.13781427     0.08400
H1288       H  0.77043137  0.15724735  0.10090952     0.11200
C1289       C  0.83031770  0.26581465  0.14644861    -0.03400
C1290       C  0.84550524  0.24388923  0.14147918    -0.06000
C1291       C  0.86517306  0.24486668  0.12280354    -0.21100
C1292       C  0.87024006  0.26772265  0.10859581     0.24600
C1293       C  0.85512833  0.28974917  0.11376745    -0.18700
C1294       C  0.83554473  0.28879177  0.13250692    -0.08600
C1295       C  0.89068887  0.26719777  0.08796317    -0.18900
C1296       C  0.89996577  0.28834609  0.07562546    -0.23700
C1297       C  0.91995553  0.28789464  0.05444487     0.26700
C1298       C  0.92779575  0.31156714  0.04353551    -0.20500
C1299       C  0.94643630  0.31240420  0.02368511    -0.10100
C1300       C  0.95771361  0.28951473  0.01413549    -0.10700
C1301       C  0.94983309  0.26580811  0.02486853    -0.03600
C1302       C  0.93124789  0.26494897  0.04472498    -0.18700
H1303       H  0.84205969  0.22586209  0.15182303     0.10400
H1304       H  0.87636583  0.22754580  0.11927383     0.10500
H1305       H  0.85774721  0.30768389  0.10310704     0.10100
H1306       H  0.82417236  0.30604683  0.13569099     0.11200
H1307       H  0.89829619  0.24829146  0.08309431     0.11300
H1308       H  0.89287528  0.30727564  0.08127596     0.13200
H1309       H  0.91947332  0.32958804  0.05043088     0.09700
H1310       H  0.95199646  0.33099612  0.01582640     0.11800
H1311       H  0.95814296  0.24777350  0.01801415     0.08400
H1312       H  0.92604194  0.24616856  0.05213959     0.11200
C1313       C  0.23693555  0.42303298  0.42938554    -0.03400
C1314       C  0.21388962  0.41139631  0.42192775    -0.06000
C1315       C  0.21361904  0.39076349  0.40376188    -0.21100
C1316       C  0.23630296  0.38174369  0.39258215     0.24600
C1317       C  0.25949999  0.39136716  0.40238021    -0.18700
C1318       C  0.25980440  0.41188553  0.42065619    -0.08600
C1319       C  0.23503439  0.36463203  0.36874414    -0.18900
C1320       C  0.25086836  0.36770156  0.34795192    -0.23700
C1321       C  0.24826138  0.35378470  0.32203349     0.26700
C1322       C  0.26989728  0.35022304  0.30630794    -0.20500
C1323       C  0.26845142  0.33664165  0.28204650    -0.10100
C1324       C  0.24520028  0.32659282  0.27287555    -0.10700
C1325       C  0.22323974  0.33143301  0.28788560    -0.03600
C1326       C  0.22473276  0.34492977  0.31225710    -0.18700
H1327       H  0.19596903  0.41923087  0.42877734     0.10400
H1328       H  0.19556515  0.38321814  0.39685852     0.10500
H1329       H  0.27735466  0.38393502  0.39492499     0.10100
H1330       H  0.27788921  0.42005036  0.42653039     0.11200
H1331       H  0.21930530  0.35131957  0.36715062     0.11300
H1332       H  0.26634352  0.38133286  0.34969787     0.13200
H1333       H  0.28812766  0.35734139  0.31319811     0.09700
H1334       H  0.28572847  0.33331928  0.27092416     0.11800
H1335       H  0.20503099  0.32407463  0.28126853     0.08400
H1336       H  0.20746474  0.34835282  0.32330526     0.11200
C1337       C  0.32631811  0.23933013  0.25207459    -0.03400
C1338       C  0.34437636  0.21918822  0.25130939    -0.06000
C1339       C  0.35928488  0.21338755  0.27411851    -0.21100
C1340       C  0.35661844  0.22772864  0.29799853     0.24600
C1341       C  0.33766066  0.24698164  0.29917372    -0.18700
C1342       C  0.32278036  0.25276538  0.27645845    -0.08600
C1343       C  0.37425833  0.22256054  0.32101737    -0.18900
C1344       C  0.38085152  0.24097549  0.33898668    -0.23700
C1345       C  0.40044923  0.23731592  0.36049244     0.26700
C1346       C  0.40787964  0.21277607  0.37011904    -0.20500
C1347       C  0.42684351  0.21039116  0.38996291    -0.10100
C1348       C  0.43863120  0.23243535  0.40078048    -0.10700
C1349       C  0.43081553  0.25693466  0.39155670    -0.03600
C1350       C  0.41189354  0.25931420  0.37170121    -0.18700
H1351       H  0.34741615  0.20831604  0.23293630     0.10400
H1352       H  0.37351948  0.19820649  0.27283360     0.10500
H1353       H  0.33429667  0.25772939  0.31753613     0.10100
H1354       H  0.30873666  0.26811072  0.27794222     0.11200
H1355       H  0.38370912  0.20384935  0.32156714     0.11300
H1356       H  0.37303016  0.26034276  0.33666242     0.13200
H1357       H  0.39898503  0.19537549  0.36269565     0.09700
H1358       H  0.43217931  0.19123696  0.39691687     0.11800
H1359       H  0.43938683  0.27430547  0.39958485     0.08400
H1360       H  0.40638602  0.27845691  0.36482848     0.11200
C1361       C  0.32959579  0.32562219  0.18086400    -0.03400
C1362       C  0.31964090  0.35082910  0.17821368    -0.06000
C1363       C  0.33587004  0.37182196  0.17482431    -0.21100
C1364       C  0.36225477  0.36799526  0.17471200     0.24600
C1365       C  0.37211551  0.34274903  0.17709300    -0.18700
C1366       C  0.35597222  0.32182809  0.18008419    -0.08600
C1367       C  0.37935717  0.39032606  0.17161615    -0.18900
C1368       C  0.40213787  0.39090924  0.18411287    -0.23700
C1369       C  0.42069221  0.41191801  0.18095724     0.26700
C1370       C  0.43835442  0.41599175  0.20184449    -0.20500
C1371       C  0.45710905  0.43457946  0.19933256    -0.10100
C1372       C  0.45892836  0.44921159  0.17561326    -0.10700
C1373       C  0.44146687  0.44497189  0.15444962    -0.03600
C1374       C  0.42235994  0.42655738  0.15714772    -0.18700
H1375       H  0.29934682  0.35425826  0.17847664     0.10400
H1376       H  0.32786356  0.39108880  0.17271069     0.10500
H1377       H  0.39233617  0.33905341  0.17626570     0.10100
H1378       H  0.36420121  0.30264137  0.18200396     0.11200
H1379       H  0.37274721  0.40676513  0.15977951     0.11300
H1380       H  0.40725392  0.37552716  0.19812822     0.13200
H1381       H  0.43763089  0.40473065  0.22022568     0.09700
H1382       H  0.47041759  0.43727675  0.21590396     0.11800
H1383       H  0.44247190  0.45600101  0.13595077     0.08400
H1384       H  0.40939826  0.42337784  0.14039209     0.11200
C1385       C  0.18898278  0.27532572  0.15398921    -0.03400
C1386       C  0.19788067  0.27676592  0.12745617    -0.06000
C1387       C  0.18135948  0.28355281  0.10626860    -0.21100
C1388       C  0.15558300  0.28830760  0.11116068     0.24600
C1389       C  0.14688289  0.28769843  0.13783899    -0.18700
C1390       C  0.16346744  0.28138353  0.15905140    -0.08600
C1391       C  0.13803405  0.29315263  0.08808647    -0.18900
C1392       C  0.11405354  0.28451721  0.08795152    -0.23700
C1393       C  0.09683602  0.28655246  0.06421736     0.26700
C1394       C  0.07879046  0.26718371  0.06010854    -0.20500
C1395       C  0.06241049  0.26805538  0.03780886    -0.10100
C1396       C  0.06331217  0.28870485  0.01953363    -0.10700
C1397       C  0.08086811  0.30855252  0.02398472    -0.03600
C1398       C  0.09768972  0.30738742  0.04604957    -0.18700
H1399       H  0.21754486  0.27241740  0.12308994     0.10400
H1400       H  0.18851798  0.28419369  0.08590208     0.10500
H1401       H  0.12724781  0.29197073  0.14234229     0.10100
H1402       H  0.15613480  0.28043037  0.17932918     0.11200
H1403       H  0.14568110  0.30172982  0.06997778     0.11300
H1404       H  0.10743700  0.27345428  0.10504393     0.13200
H1405       H  0.07760996  0.25111063  0.07400832     0.09700
H1406       H  0.04875358  0.25273672  0.03506599     0.11800
H1407       H  0.08175355  0.32477991  0.01026111     0.08400
H1408       H  0.11100871  0.32294111  0.04908957     0.11200
C1409       C  0.27634715  0.18097158  0.13359481    -0.03400
C1410       C  0.29849193  0.16589541  0.13108812    -0.06000
C1411       C  0.29913294  0.14508860  0.11319911    -0.21100
C1412       C  0.27784641  0.13925821  0.09718375     0.24600
C1413       C  0.25539611  0.15382118  0.10032149    -0.18700
C1414       C  0.25468447  0.17449552  0.11837281    -0.08600
C1415       C  0.27976891  0.11779790  0.07759820    -0.18900
C1416       C  0.26542114  0.11655787  0.05503413    -0.23700
C1417       C  0.26749520  0.09498526  0.03567115     0.26700
C1418       C  0.24572907  0.08730867  0.02140333    -0.20500
C1419       C  0.24671110  0.06624875  0.00384730    -0.10100
C1420       C  0.26964612  0.05282530  0.99990492    -0.10700
C1421       C  0.29169111  0.06119048  0.01338462    -0.03600
C1422       C  0.29064270  0.08208853  0.03113449    -0.18700
H1423       H  0.31536241  0.17023149  0.14287800     0.10400
H1424       H  0.31649202  0.13386385  0.11142166     0.10500
H1425       H  0.23828738  0.14925955  0.08910300     0.10100
H1426       H  0.23728418  0.18565088  0.12010214     0.11200
H1427       H  0.29395743  0.10289945  0.08166291     0.11300
H1428       H  0.25113116  0.13128695  0.05081878     0.13200
H1429       H  0.22778051  0.09721090  0.02440212     0.09700
H1430       H  0.22945929  0.06030958  0.99360122     0.11800
H1431       H  0.30966472  0.05127165  0.01065550     0.08400
H1432       H  0.30795955  0.08813290  0.04114977     0.11200
C1433       C  0.06511553  0.94557332  0.22860899    -0.03400
C1434       C  0.07218591  0.93387839  0.20421957    -0.06000
C1435       C  0.09157820  0.91528122  0.20388063    -0.21100
C1436       C  0.10404332  0.90791265  0.22788362     0.24600
C1437       C  0.09721818  0.91990963  0.25220053    -0.18700
C1438       C  0.07786587  0.93840942  0.25255684    -0.08600
C1439       C  0.12408933  0.88775215  0.22687581    -0.18900
C1440       C  0.12975884  0.87230145  0.24796364    -0.23700
C1441       C  0.14791895  0.85048200  0.24600470     0.26700
C1442       C  0.14404910  0.82840827  0.26173822    -0.20500
C1443       C  0.15966722  0.80665666  0.25886676    -0.10100
C1444       C  0.17962092  0.80675912  0.24036317    -0.10700
C1445       C  0.18422004  0.82940058  0.22559591    -0.03600
C1446       C  0.16858273  0.85107517  0.22844153    -0.18700
H1447       H  0.06286151  0.93918148  0.18540775     0.10400
H1448       H  0.09668817  0.90643069  0.18486868     0.10500
H1449       H  0.10700529  0.91540995  0.27094922     0.10100
H1450       H  0.07314199  0.94734781  0.27162979     0.11200
H1451       H  0.13292585  0.88419321  0.20754188     0.11300
H1452       H  0.11905895  0.87400877  0.26644311     0.13200
H1453       H  0.12838678  0.82769169  0.27563731     0.09700
H1454       H  0.15572481  0.78959599  0.27066185     0.11800
H1455       H  0.19968588  0.83029489  0.21147045     0.08400
H1456       H  0.17264351  0.86817184  0.21677234     0.11200
C1457       C  0.82710154  0.82817094  0.23694905    -0.03400
C1458       C  0.81986178  0.85436417  0.23886277    -0.06000
C1459       C  0.83796587  0.87381248  0.23869012    -0.21100
C1460       C  0.86380800  0.86764890  0.23725090     0.24600
C1461       C  0.87133254  0.84150997  0.23580244    -0.18700
C1462       C  0.85308425  0.82191551  0.23540468    -0.08600
C1463       C  0.88212657  0.88906350  0.23533125    -0.18900
C1464       C  0.90526003  0.88851666  0.24703385    -0.23700
C1465       C  0.92290660  0.91054609  0.24471475     0.26700
C1466       C  0.93838456  0.91740685  0.26676072    -0.20500
C1467       C  0.95556758  0.93776392  0.26464687    -0.10100
C1468       C  0.95801274  0.95120278  0.24018486    -0.10700
C1469       C  0.94241553  0.94431888  0.21816401    -0.03600
C1470       C  0.92498559  0.92429704  0.22042742    -0.18700
H1471       H  0.80005099  0.85997963  0.23980922     0.10400
H1472       H  0.83174089  0.89381591  0.23959388     0.10500
H1473       H  0.89118588  0.83628931  0.23409771     0.10100
H1474       H  0.85926681  0.80196368  0.23369829     0.11200
H1475       H  0.87570068  0.90659350  0.22517247     0.11300
H1476       H  0.91085010  0.87221876  0.25964824     0.13200
H1477       H  0.93713336  0.90701903  0.28564487     0.09700
H1478       H  0.96742462  0.94249527  0.28192269     0.11800
H1479       H  0.94389657  0.95420028  0.19901521     0.08400
H1480       H  0.91363435  0.91911169  0.20291965     0.11200
C1481       C  0.96563033  0.06384463  0.23349731    -0.03400
C1482       C  0.96300298  0.07822185  0.25743893    -0.06000
C1483       C  0.94629630  0.09932673  0.25842082    -0.21100
C1484       C  0.93166637  0.10603074  0.23567954     0.24600
C1485       C  0.93488003  0.09225007  0.21151654    -0.18700
C1486       C  0.95175152  0.07138379  0.21042147    -0.08600
C1487       C  0.91205922  0.12642938  0.23776189    -0.18900
C1488       C  0.88889886  0.12272100  0.22703420    -0.23700
C1489       C  0.86773751  0.14125440  0.22986331     0.26700
C1490       C  0.84311056  0.13152494  0.23096122    -0.20500
C1491       C  0.82232752  0.14825754  0.23175578    -0.10100
C1492       C  0.82576533  0.17512119  0.23084538    -0.10700
C1493       C  0.85051118  0.18495685  0.23008817    -0.03600
C1494       C  0.87141059  0.16811805  0.22977359    -0.18700
H1495       H  0.97370083  0.07305621  0.27546660     0.10400
H1496       H  0.94411224  0.10982942  0.27718111     0.10500
H1497       H  0.92411710  0.09746636  0.19354293     0.10100
H1498       H  0.95358626  0.06089763  0.19161925     0.11200
H1499       H  0.91583422  0.14329064  0.25021025     0.11300
H1500       H  0.88472156  0.10440101  0.21723858     0.13200
H1501       H  0.83993704  0.11086320  0.23094223     0.09700
H1502       H  0.80350567  0.14007937  0.23215577     0.11800
H1503       H  0.85367978  0.20559331  0.22929780     0.08400
H1504       H  0.89026900  0.17606984  0.22845050     0.11200
C1505       C  0.07153529  0.05236639  0.22068295    -0.03400
C1506       C  0.08075777  0.05800483  0.19486807    -0.06000
C1507       C  0.10092609  0.07512570  0.19176154    -0.21100
C1508       C  0.11214535  0.08708047  0.21432616     0.24600
C1509       C  0.10336977  0.08073968  0.24017815    -0.18700
C1510       C  0.08322865  0.06377074  0.24326252    -0.08600
C1511       C  0.13282910  0.10606343  0.21035001    -0.18900
C1512       C  0.13796153  0.12472159  0.22854319    -0.23700
C1513       C  0.15718080  0.14523183  0.22525768     0.26700
C1514       C  0.15499401  0.16723204  0.24160398    -0.20500
C1515       C  0.17201516  0.18747831  0.23942398    -0.10100
C1516       C  0.19192180  0.18627755  0.22088774    -0.10700
C1517       C  0.19470853  0.16389892  0.20495966    -0.03600
C1518       C  0.17747223  0.14351041  0.20710283    -0.18700
H1519       H  0.07235638  0.04926388  0.17706031     0.10400
H1520       H  0.10750850  0.07936144  0.17165330     0.10500
H1521       H  0.11211579  0.08853639  0.25823032     0.10100
H1522       H  0.07683748  0.05958121  0.26344536     0.11200
H1523       H  0.14278043  0.10561384  0.19133702     0.11300
H1524       H  0.12626674  0.12633447  0.24630762     0.13200
H1525       H  0.13973333  0.16899305  0.25593920     0.09700
H1526       H  0.16931357  0.20427879  0.25215569     0.11800
H1527       H  0.20991531  0.16232491  0.19055579     0.08400
H1528       H  0.18019763  0.12655008  0.19466283     0.11200
loop_ 
_geom_bond_atom_site_label_1 
_geom_bond_atom_site_label_2 
_geom_bond_distance 
_geom_bond_site_symmetry_2 
_ccdc_geom_bond_type 
O1           Ni9   1.917   1_565  S
O1           C11   1.282       .  A
O2           Ni9   1.916   1_655  S
O2           C12   1.282       .  A
O3           Ni9   1.916       .  S
O3           C13   1.281       .  A
O4           Ni9   1.916   1_665  S
O4           C14   1.282       .  A
O5          Ni10   1.922   1_665  S
O5           C14   1.283       .  A
O6          Ni10   1.917       .  S
O6           C13   1.283       .  A
O7          Ni10   1.908   1_655  S
O7           C12   1.279       .  A
O8          Ni10   1.903   1_565  S
O8           C11   1.279       .  A
Ni9         Ni10   2.387       .  S
C11        C1433   1.475       .  S
C12        C1481   1.475       .  S
C13        C1505   1.481       .  S
C14        C1468   1.482       .  S
O15         Ni21   1.928       .  S
O15          C36   1.269       .  A
O16         Ni39   1.890       .  S
O16          C25   1.265       .  A
O17         Ni21   1.924       .  S
O17         Ni39   1.912       .  S
O17         Ni33   1.916       .  S
O17          H40   0.966       .  S
C18          O35   1.270       .  A
C18          O27   1.277       .  A
C18        C1361   1.477       .  S
O19         Ni38   1.932       .  S
O19          C25   1.273       .  A
O20         Ni38   1.910       .  S
O20          C22   1.268       .  A
Ni21         O24   1.916       .  S
Ni21         O26   1.905       .  S
C22          O32   1.269       .  A
C22        C1337   1.482       .  S
O23         Ni39   1.915       .  S
O23          C29   1.271       .  A
O24          C29   1.272       .  A
C25        C1409   1.472       .  S
O26          C28   1.270       .  A
O27         Ni38   1.936       .  S
C28          O34   1.273       .  A
C28        C1385   1.475       .  S
C29        C1516   1.484       .  S
H30          O31   0.966       .  S
O31         Ni39   1.905       .  S
O31         Ni33   1.900       .  S
O31         Ni38   1.920       .  S
O32         Ni33   1.924       .  S
Ni33         O37   1.889       .  S
Ni33         O35   1.904       .  S
O34         Ni39   1.925       .  S
C36          O37   1.262       .  A
C36        C1324   1.476       .  S
O41         Ni47   1.932       .  S
O41          C62   1.272       .  A
O42         Ni65   1.908       .  S
O42          C51   1.268       .  A
O43         Ni47   1.919       .  S
O43         Ni65   1.909       .  S
O43         Ni59   1.899       .  S
O43          H66   0.965       .  S
C44          O61   1.264       .  A
C44          O53   1.272       .  A
C44        C1252   1.472       .  S
O45         Ni64   1.927       .  S
O45          C51   1.271       .  A
O46         Ni64   1.910       .  S
O46          C48   1.272       .  A
Ni47         O50   1.927       .  S
Ni47         O52   1.908       .  S
C48          O58   1.278       .  A
C48        C1217   1.488       .  S
O49         Ni65   1.897       .  S
O49          C55   1.268       .  A
O50          C55   1.274       .  A
C51        C1289   1.488       .  S
O52          C54   1.270       .  A
O53         Ni64   1.930       .  S
C54          O60   1.277       .  A
C54        C1276   1.489       .  S
C55        C1492   1.473       .  S
H56          O57   0.967       .  S
O57         Ni65   1.917       .  S
O57         Ni59   1.914       .  S
O57         Ni64   1.925       .  S
O58         Ni59   1.947       .  S
Ni59         O63   1.902       .  S
Ni59         O61   1.892       .  S
O60         Ni65   1.946       .  S
C62          O63   1.266       .  A
C62        C1193   1.484       .  S
O67         Ni73   1.929       .  S
O67          C88   1.273       .  A
O68         Ni91   1.886       .  S
O68          C77   1.265       .  A
O69         Ni73   1.908       .  S
O69         Ni91   1.890       .  S
O69         Ni85   1.912       .  S
O69          H92   0.966       .  S
C70          O87   1.275       .  A
C70          O79   1.277       .  A
C70        C1457   1.485       .  S
O71         Ni90   1.936       .  S
O71          C77   1.274       .  A
O72         Ni90   1.908       .  S
O72          C74   1.270       .  A
Ni73         O76   1.927       .  S
Ni73         O78   1.911       .  S
C74          O84   1.274       .  A
C74        C1169   1.487       .  S
O75         Ni91   1.919       .  S
O75          C81   1.276       .  A
O76          C81   1.277       .  A
C77        C1097   1.475       .  S
O78          C80   1.270       .  A
O79         Ni90   1.931       .  S
C80          O86   1.273       .  A
C80        C1084   1.483       .  S
C81        C1132   1.487       .  S
H82          O83   0.966       .  S
O83         Ni91   1.908       .  S
O83         Ni85   1.902       .  S
O83         Ni90   1.910       .  S
O84         Ni85   1.938       .  S
Ni85         O89   1.893       .  S
Ni85         O87   1.917       .  S
O86         Ni91   1.930       .  S
C88          O89   1.266       .  A
C88        C1156   1.472       .  S
O93         Ni99   1.935       .  S
O93         C114   1.274       .  A
O94        Ni117   1.890       .  S
O94         C103   1.265       .  A
O95         Ni99   1.905       .  S
O95        Ni117   1.898       .  S
O95        Ni111   1.900       .  S
O95         H118   0.966       .  S
C96         O113   1.273       .  A
C96         O105   1.277       .  A
C96        C1444   1.477       .  S
O97        Ni116   1.931       .  S
O97         C103   1.273       .  A
O98        Ni116   1.909       .  S
O98         C100   1.268       .  A
Ni99        O102   1.931       .  S
Ni99        O104   1.905       .  S
C100        O110   1.269       .  A
C100       C1060   1.480       .  S
O101       Ni117   1.895       .  S
O101        C107   1.270       .  A
O102        C107   1.277       .  A
C103        C988   1.472       .  S
O104        C106   1.269       .  A
O105       Ni116   1.923       .  S
C106        O112   1.274       .  A
C106        C964   1.484       .  S
C107       C1001   1.476       .  S
H108        O109   0.966       .  S
O109       Ni117   1.899       .  S
O109       Ni111   1.891       .  S
O109       Ni116   1.909       .  S
O110       Ni111   1.918       .  S
Ni111       O115   1.883       .  S
Ni111       O113   1.905       .  S
O112       Ni117   1.937       .  S
C114        O115   1.263       .  A
C114       C1036   1.472       .  S
O119       Ni127   1.905   1_545  S
O119        C129   1.279       .  A
O120       Ni127   1.904       .  S
O120        C130   1.279   1_556  A
O121       Ni127   1.912   1_545  S
O121        C131   1.281       .  A
O122       Ni127   1.913       .  S
O122        C132   1.281       .  A
O123       Ni128   1.907       .  S
O123        C132   1.280       .  A
O124       Ni128   1.908   1_545  S
O124        C131   1.280       .  A
O125       Ni128   1.911       .  S
O125        C130   1.281   1_556  A
O126       Ni128   1.912   1_545  S
O126        C129   1.281       .  A
Ni127      Ni128   2.389       .  S
C129        C905   1.472       .  S
C130       C1025   1.471       .  S
C131       C1420   1.473       .  S
C132        C929   1.474       .  S
O133       Ni141   1.911       .  S
O133        C143   1.281       .  A
O134       Ni141   1.913   1_655  S
O134        C144   1.281       .  A
O135       Ni141   1.915       .  S
O135        C145   1.281       .  A
O136       Ni141   1.913   1_655  S
O136        C146   1.281       .  A
O137       Ni142   1.929   1_655  S
O137        C146   1.284       .  A
O138       Ni142   1.929       .  S
O138        C145   1.284       .  A
O139       Ni142   1.916   1_655  S
O139        C144   1.281       .  A
O140       Ni142   1.918       .  S
O140        C143   1.281       .  A
Ni141      Ni142   2.386       .  S
C143       C1396   1.474   1_556  S
C144        C857   1.478       .  S
C145        C881   1.487       .  S
C146       C1300   1.486   1_556  S
O147       Ni155   1.931   1_545  S
O147        C157   1.284       .  A
O148       Ni155   1.928       .  S
O148        C158   1.284   1_556  A
O149       Ni155   1.930   1_545  S
O149        C159   1.284   1_556  A
O150       Ni155   1.929       .  S
O150        C160   1.284       .  A
O151       Ni156   1.920       .  S
O151        C160   1.282       .  A
O152       Ni156   1.919   1_545  S
O152        C159   1.282   1_556  A
O153       Ni156   1.918       .  S
O153        C158   1.282   1_556  A
O154       Ni156   1.919   1_545  S
O154        C157   1.282       .  A
Ni155      Ni156   2.384       .  S
C157        C833   1.491       .  S
C158       C1180   1.487       .  S
C159       C1265   1.489       .  S
C160        C820   1.490       .  S
O161       Ni169   1.905   1_655  S
O161        C171   1.279   1_556  A
O162       Ni169   1.907       .  S
O162        C172   1.280       .  A
O163       Ni169   1.914   1_655  S
O163        C173   1.282       .  A
O164       Ni169   1.912       .  S
O164        C174   1.281       .  A
O165       Ni170   1.917       .  S
O165        C174   1.281       .  A
O166       Ni170   1.919   1_655  S
O166        C173   1.282       .  A
O167       Ni170   1.907       .  S
O167        C172   1.280       .  A
O168       Ni170   1.910   1_655  S
O168        C171   1.281   1_556  A
Ni169      Ni170   2.389       .  S
C171       C1145   1.471       .  S
C172        C761   1.471       .  S
C173        C785   1.481       .  S
C174       C1049   1.474   1_556  S
O175       Ni181   1.941       .  S
O175        C196   1.274       .  A
O176       Ni199   1.893       .  S
O176        C185   1.267       .  A
O177       Ni181   1.912       .  S
O177       Ni199   1.901       .  S
O177       Ni193   1.897       .  S
O177        H200   0.966       .  S
C178        O195   1.270       .  A
C178        O187   1.277       .  A
C178        C772   1.475       .  S
O179       Ni198   1.938       .  S
O179        C185   1.275       .  A
O180       Ni198   1.920       .  S
O180        C182   1.273       .  A
Ni181       O184   1.931       .  S
Ni181       O186   1.907       .  S
C182        O192   1.274       .  A
C182        C737   1.492       .  S
O183       Ni199   1.898       .  S
O183        C189   1.272       .  A
O184        C189   1.278       .  A
C185        C676   1.479       .  S
O186        C188   1.269       .  A
O187       Ni198   1.926       .  S
C188        O194   1.275       .  A
C188        C713   1.490       .  S
C189        C689   1.477       .  S
H190        O191   0.966       .  S
O191       Ni199   1.902       .  S
O191       Ni193   1.894       .  S
O191       Ni198   1.913       .  S
O192       Ni193   1.935       .  S
Ni193       O197   1.882       .  S
Ni193       O195   1.895       .  S
O194       Ni199   1.940       .  S
C196        O197   1.262       .  A
C196        C940   1.475       .  S
O201       Ni209   1.936       .  S
O201        C211   1.285       .  A
O202       Ni209   1.936   1_645  S
O202        C212   1.285       .  A
O203       Ni209   1.907   1_545  S
O203        C213   1.279       .  A
O204       Ni209   1.914   1_655  S
O204        C214   1.281       .  A
O205       Ni210   1.920   1_655  S
O205        C214   1.282       .  A
O206       Ni210   1.919   1_545  S
O206        C213   1.282       .  A
O207       Ni210   1.922   1_645  S
O207        C212   1.282       .  A
O208       Ni210   1.921       .  S
O208        C211   1.282       .  A
Ni209      Ni210   2.385       .  S
C211        C748   1.492       .  S
C212        C617   1.494       .  S
C213        C641   1.477       .  S
C214        C593   1.482       .  S
O215       Ni221   1.925       .  S
O215        C236   1.271       .  A
O216       Ni239   1.898       .  S
O216        C225   1.265       .  A
O217       Ni221   1.918       .  S
O217       Ni239   1.907       .  S
O217       Ni233   1.916       .  S
O217        H240   0.964       .  S
C218        O235   1.272       .  A
C218        O227   1.274       .  A
C218        C652   1.479       .  S
O219       Ni238   1.921       .  S
O219        C225   1.269       .  A
O220       Ni238   1.906       .  S
O220        C222   1.268       .  A
Ni221       O224   1.930       .  S
Ni221       O226   1.901       .  S
C222        O232   1.272       .  A
C222        C892   1.487       .  S
O223       Ni239   1.902       .  S
O223        C229   1.268       .  A
O224        C229   1.273       .  A
C225        C545   1.472       .  S
O226        C228   1.270       .  A
O227       Ni238   1.917       .  S
C228        O234   1.278       .  A
C228        C521   1.485       .  S
C229        C569   1.475       .  S
H230        O231   0.966       .  S
O231       Ni239   1.903       .  S
O231       Ni233   1.898       .  S
O231       Ni238   1.916       .  S
O232       Ni233   1.929       .  S
Ni233       O237   1.885       .  S
Ni233       O235   1.909       .  S
O234       Ni239   1.948       .  S
C236        O237   1.263       .  A
C236        C916   1.472       .  S
O241       Ni247   1.935       .  S
O241        C262   1.273       .  A
O242       Ni265   1.890       .  S
O242        C251   1.264       .  A
O243       Ni247   1.926       .  S
O243       Ni265   1.906       .  S
O243       Ni259   1.918       .  S
O243        H266   0.967       .  S
C244        O261   1.273       .  A
C244        O253   1.276       .  A
C244        C628   1.491       .  S
O245       Ni264   1.938       .  S
O245        C251   1.273       .  A
O246       Ni264   1.910       .  S
O246        C248   1.271       .  A
Ni247       O250   1.936       .  S
Ni247       O252   1.907       .  S
C248        O258   1.276       .  A
C248        C844   1.491       .  S
O249       Ni265   1.917       .  S
O249        C255   1.273       .  A
O250        C255   1.276       .  A
C251        C473   1.479       .  S
O252        C254   1.269       .  A
O253       Ni264   1.936       .  S
C254        O260   1.273       .  A
C254        C449   1.486       .  S
C255        C508   1.491       .  S
H256        O257   0.966       .  S
O257       Ni265   1.916       .  S
O257       Ni259   1.907       .  S
O257       Ni264   1.923       .  S
O258       Ni259   1.940       .  S
Ni259       O263   1.893       .  S
Ni259       O261   1.917       .  S
O260       Ni265   1.931       .  S
C262        O263   1.265       .  A
C262        C868   1.479       .  S
O267       Ni273   1.932       .  S
O267        C288   1.271       .  A
O268       Ni291   1.896       .  S
O268        C277   1.265       .  A
O269       Ni273   1.923       .  S
O269       Ni291   1.909       .  S
O269       Ni285   1.906       .  S
O269        H292   0.966       .  S
C270        O287   1.268       .  A
C270        O279   1.273       .  A
C270        C436   1.481       .  S
O271       Ni290   1.930       .  S
O271        C277   1.271       .  A
O272       Ni290   1.906       .  S
O272        C274   1.271       .  A
Ni273       O276   1.928       .  S
Ni273       O278   1.911       .  S
C274        O284   1.280       .  A
C274        C401   1.492       .  S
O275       Ni291   1.911       .  S
O275        C281   1.272       .  A
O276        C281   1.275       .  A
C277        C796   1.482       .  S
O278        C280   1.269       .  A
O279       Ni290   1.927       .  S
C280        O286   1.274       .  A
C280        C809   1.491       .  S
C281        C604   1.485       .  S
H282        O283   0.966       .  S
O283       Ni291   1.921       .  S
O283       Ni285   1.919       .  S
O283       Ni290   1.924       .  S
O284       Ni285   1.954       .  S
Ni285       O289   1.906       .  S
Ni285       O287   1.907       .  S
O286       Ni291   1.938       .  S
C288        O289   1.268       .  A
C288        C377   1.484       .  S
O293       Ni301   1.921       .  S
O293        C303   1.283       .  A
O294       Ni301   1.924       .  S
O294        C304   1.283       .  A
O295       Ni301   1.906       .  S
O295        C305   1.279       .  A
O296       Ni301   1.907       .  S
O296        C306   1.280       .  A
O297       Ni302   1.919       .  S
O297        C306   1.282       .  A
O298       Ni302   1.921       .  S
O298        C305   1.282       .  A
O299       Ni302   1.921       .  S
O299        C304   1.283       .  A
O300       Ni302   1.932       .  S
O300        C303   1.284       .  A
Ni301      Ni302   2.387       .  S
C303        C497   1.490       .  S
C304        C724   1.487       .  S
C305        C425   1.474       .  S
C306        C580   1.474       .  S
O307       Ni315   1.913       .  S
O307        C317   1.281       .  A
O308       Ni315   1.910       .  S
O308        C318   1.280       .  A
O309       Ni315   1.928       .  S
O309        C319   1.284       .  A
O310       Ni315   1.925       .  S
O310        C320   1.283       .  A
O311       Ni316   1.906       .  S
O311        C320   1.280       .  A
O312       Ni316   1.910       .  S
O312        C319   1.280       .  A
O313       Ni316   1.908       .  S
O313        C318   1.280       .  A
O314       Ni316   1.906       .  S
O314        C317   1.280       .  A
Ni315      Ni316   2.388       .  S
C317       C1241   1.473       .  S
C318       C1012   1.473       .  S
C319       C1121   1.484       .  S
C320       C1372   1.476       .  S
O321       Ni329   1.919       .  S
O321        C331   1.282       .  A
O322       Ni329   1.917       .  S
O322        C332   1.282       .  A
O323       Ni329   1.915       .  S
O323        C333   1.282       .  A
O324       Ni329   1.911       .  S
O324        C334   1.280       .  A
O325       Ni330   1.939       .  S
O325        C334   1.286       .  A
O326       Ni330   1.935       .  S
O326        C333   1.285       .  A
O327       Ni330   1.917       .  S
O327        C332   1.282       .  A
O328       Ni330   1.918       .  S
O328        C331   1.281       .  A
Ni329      Ni330   2.385       .  S
C331       C1073   1.479       .  S
C332        C460   1.481       .  S
C333        C412   1.491       .  S
C334       C1228   1.488       .  S
O335       Ni343   1.900       .  S
O335        C345   1.278       .  A
O336       Ni343   1.902       .  S
O336        C346   1.278       .  A
O337       Ni343   1.932       .  S
O337        C347   1.285       .  A
O338       Ni343   1.933       .  S
O338        C348   1.285       .  A
O339       Ni344   1.902       .  S
O339        C348   1.278       .  A
O340       Ni344   1.901       .  S
O340        C347   1.278       .  A
O341       Ni344   1.920       .  S
O341        C346   1.283       .  A
O342       Ni344   1.920       .  S
O342        C345   1.283       .  A
Ni343      Ni344   2.388       .  S
C345        C700   1.474       .  S
C346       C1108   1.474       .  S
C347        C953   1.481       .  S
C348        C388   1.480       .  S
O349       Ni357   1.916       .  S
O349        C359   1.282       .  A
O350       Ni357   1.914       .  S
O350        C360   1.281       .  A
O351       Ni357   1.914       .  S
O351        C361   1.281       .  A
O352       Ni357   1.910       .  S
O352        C362   1.280       .  A
O353       Ni358   1.915       .  S
O353        C362   1.282       .  A
O354       Ni358   1.915       .  S
O354        C361   1.282       .  A
O355       Ni358   1.902       .  S
O355        C360   1.279       .  A
O356       Ni358   1.905       .  S
O356        C359   1.279       .  A
Ni357      Ni358   2.388       .  S
C359        C977   1.473       .  S
C360        C556   1.472       .  S
C361        C665   1.479       .  S
C362       C1313   1.476       .  S
O363       Ni371   1.914       .  S
O363        C373   1.280       .  A
O364       Ni371   1.912       .  S
O364        C374   1.280       .  A
O365       Ni371   1.933       .  S
O365        C375   1.285       .  A
O366       Ni371   1.934       .  S
O366        C376   1.285       .  A
O367       Ni372   1.901       .  S
O367        C376   1.279       .  A
O368       Ni372   1.903       .  S
O368        C375   1.278       .  A
O369       Ni372   1.919       .  S
O369        C374   1.283       .  A
O370       Ni372   1.919       .  S
O370        C373   1.283       .  A
Ni371      Ni372   2.386       .  S
C373        C484   1.480       .  S
C374       C1348   1.480       .  S
C375       C1204   1.484       .  S
C376        C532   1.483       .  S
C377        C378   1.408       .  A
C377        C382   1.406       .  A
C378        C379   1.398       .  A
C378        H391   1.083       .  S
C379        C380   1.401       .  A
C379        H392   1.083       .  S
C380        C381   1.408       .  A
C380        C383   1.485       .  S
C381        C382   1.399       .  A
C381        H393   1.082       .  S
C382        H394   1.083       .  S
C383        C384   1.347       .  D
C383        H395   1.084       .  S
C384        C385   1.488       .  S
C384        H396   1.086       .  S
C385        C386   1.402       .  A
C385        C390   1.411       .  A
C386        C387   1.394       .  A
C386        H397   1.084       .  S
C387        C388   1.405       .  A
C387        H398   1.083       .  S
C388        C389   1.404       .  A
C389        C390   1.403       .  A
C389        H399   1.083       .  S
C390        H400   1.081       .  S
C401        C402   1.408       .  A
C401        C406   1.407       .  A
C402        C403   1.401       .  A
C402        H415   1.083       .  S
C403        C404   1.404       .  A
C403        H416   1.083       .  S
C404        C405   1.411       .  A
C404        C407   1.498       .  S
C405        C406   1.404       .  A
C405        H417   1.081       .  S
C406        H418   1.083       .  S
C407        C408   1.351       .  D
C407        H419   1.083       .  S
C408        C409   1.500       .  S
C408        H420   1.085       .  S
C409        C410   1.404       .  A
C409        C414   1.413       .  A
C410        C411   1.397       .  A
C410        H421   1.083       .  S
C411        C412   1.406       .  A
C411        H422   1.083       .  S
C412        C413   1.408       .  A
C413        C414   1.407       .  A
C413        H423   1.083       .  S
C414        H424   1.080       .  S
C425        C426   1.405       .  A
C425        C430   1.404       .  A
C426        C427   1.399       .  A
C426        H439   1.083       .  S
C427        C428   1.402       .  A
C427        H440   1.083       .  S
C428        C429   1.406       .  A
C428        C431   1.480       .  S
C429        C430   1.394       .  A
C429        H441   1.083       .  S
C430        H442   1.083       .  S
C431        C432   1.343       .  D
C431        H443   1.087       .  S
C432        C433   1.475       .  S
C432        H444   1.087       .  S
C433        C434   1.398       .  A
C433        C438   1.406       .  A
C434        C435   1.391       .  A
C434        H445   1.084       .  S
C435        C436   1.406       .  A
C435        H446   1.083       .  S
C436        C437   1.408       .  A
C437        C438   1.402       .  A
C437        H447   1.083       .  S
C438        H448   1.083       .  S
C449        C450   1.405       .  A
C449        C454   1.407       .  A
C450        C451   1.397       .  A
C450        H463   1.083       .  S
C451        C452   1.404       .  A
C451        H464   1.083       .  S
C452        C453   1.410       .  A
C452        C455   1.491       .  S
C453        C454   1.401       .  A
C453        H465   1.080       .  S
C454        H466   1.083       .  S
C455        C456   1.348       .  D
C455        H467   1.085       .  S
C456        C457   1.488       .  S
C456        H468   1.083       .  S
C457        C458   1.403       .  A
C457        C462   1.409       .  A
C458        C459   1.398       .  A
C458        H469   1.083       .  S
C459        C460   1.405       .  A
C459        H470   1.083       .  S
C460        C461   1.405       .  A
C461        C462   1.398       .  A
C461        H471   1.083       .  S
C462        H472   1.081       .  S
C473        C474   1.405       .  A
C473        C478   1.406       .  A
C474        C475   1.394       .  A
C474        H487   1.083       .  S
C475        C476   1.402       .  A
C475        H488   1.084       .  S
C476        C477   1.407       .  A
C476        C479   1.482       .  S
C477        C478   1.399       .  A
C477        H489   1.082       .  S
C478        H490   1.083       .  S
C479        C480   1.346       .  D
C479        H491   1.085       .  S
C480        C481   1.484       .  S
C480        H492   1.085       .  S
C481        C482   1.403       .  A
C481        C486   1.408       .  A
C482        C483   1.399       .  A
C482        H493   1.083       .  S
C483        C484   1.407       .  A
C483        H494   1.083       .  S
C484        C485   1.404       .  A
C485        C486   1.395       .  A
C485        H495   1.083       .  S
C486        H496   1.081       .  S
C497        C498   1.407       .  A
C497        C502   1.408       .  A
C498        C499   1.400       .  A
C498        H511   1.083       .  S
C499        C500   1.402       .  A
C499        H512   1.083       .  S
C500        C501   1.407       .  A
C500        C503   1.489       .  S
C501        C502   1.406       .  A
C501        H513   1.083       .  S
C502        H514   1.083       .  S
C503        C504   1.348       .  D
C503        H515   1.087       .  S
C504        C505   1.491       .  S
C504        H516   1.087       .  S
C505        C506   1.405       .  A
C505        C510   1.406       .  A
C506        C507   1.403       .  A
C506        H517   1.083       .  S
C507        C508   1.407       .  A
C507        H518   1.083       .  S
C508        C509   1.409       .  A
C509        C510   1.402       .  A
C509        H519   1.083       .  S
C510        H520   1.083       .  S
C521        C522   1.408       .  A
C521        C526   1.406       .  A
C522        C523   1.398       .  A
C522        H535   1.083       .  S
C523        C524   1.402       .  A
C523        H536   1.083       .  S
C524        C525   1.409       .  A
C524        C527   1.488       .  S
C525        C526   1.400       .  A
C525        H537   1.082       .  S
C526        H538   1.083       .  S
C527        C528   1.346       .  D
C527        H539   1.085       .  S
C528        C529   1.487       .  S
C528        H540   1.086       .  S
C529        C530   1.401       .  A
C529        C534   1.410       .  A
C530        C531   1.393       .  A
C530        H541   1.084       .  S
C531        C532   1.406       .  A
C531        H542   1.083       .  S
C532        C533   1.406       .  A
C533        C534   1.404       .  A
C533        H543   1.083       .  S
C534        H544   1.081       .  S
C545        C546   1.406       .  A
C545        C550   1.403       .  A
C546        C547   1.393       .  A
C546        H559   1.083       .  S
C547        C548   1.398       .  A
C547        H560   1.083       .  S
C548        C549   1.408       .  A
C548        C551   1.473       .  S
C549        C550   1.394       .  A
C549        H561   1.082       .  S
C550        H562   1.083       .  S
C551        C552   1.341       .  D
C551        H563   1.086       .  S
C552        C553   1.473       .  S
C552        H564   1.086       .  S
C553        C554   1.399       .  A
C553        C558   1.406       .  A
C554        C555   1.391       .  A
C554        H565   1.084       .  S
C555        C556   1.405       .  A
C555        H566   1.083       .  S
C556        C557   1.405       .  A
C557        C558   1.396       .  A
C557        H567   1.083       .  S
C558        H568   1.082       .  S
C569        C570   1.405       .  A
C569        C574   1.405       .  A
C570        C571   1.392       .  A
C570        H583   1.083       .  S
C571        C572   1.399       .  A
C571        H584   1.084       .  S
C572        C573   1.406       .  A
C572        C575   1.475       .  S
C573        C574   1.399       .  A
C573        H585   1.083       .  S
C574        H586   1.083       .  S
C575        C576   1.344       .  D
C575        H587   1.086       .  S
C576        C577   1.480       .  S
C576        H588   1.087       .  S
C577        C578   1.403       .  A
C577        C582   1.405       .  A
C578        C579   1.399       .  A
C578        H589   1.083       .  S
C579        C580   1.405       .  A
C579        H590   1.083       .  S
C580        C581   1.403       .  A
C581        C582   1.393       .  A
C581        H591   1.083       .  S
C582        H592   1.082       .  S
C593        C594   1.406       .  A
C593        C598   1.406       .  A
C594        C595   1.397       .  A
C594        H607   1.083       .  S
C595        C596   1.403       .  A
C595        H608   1.083       .  S
C596        C597   1.407       .  A
C596        C599   1.484       .  S
C597        C598   1.399       .  A
C597        H609   1.082       .  S
C598        H610   1.083       .  S
C599        C600   1.348       .  D
C599        H611   1.086       .  S
C600        C601   1.486       .  S
C600        H612   1.086       .  S
C601        C602   1.405       .  A
C601        C606   1.405       .  A
C602        C603   1.402       .  A
C602        H613   1.083       .  S
C603        C604   1.408       .  A
C603        H614   1.083       .  S
C604        C605   1.406       .  A
C605        C606   1.394       .  A
C605        H615   1.083       .  S
C606        H616   1.082       .  S
C617        C618   1.407       .  A
C617        C622   1.408       .  A
C618        C619   1.404       .  A
C618        H631   1.083       .  S
C619        C620   1.407       .  A
C619        H632   1.083       .  S
C620        C621   1.408       .  A
C620        C623   1.498       .  S
C621        C622   1.402       .  A
C621        H633   1.081       .  S
C622        H634   1.083       .  S
C623        C624   1.352       .  D
C623        H635   1.085       .  S
C624        C625   1.497       .  S
C624        H636   1.085       .  S
C625        C626   1.406       .  A
C625        C630   1.409       .  A
C626        C627   1.402       .  A
C626        H637   1.083       .  S
C627        C628   1.407       .  A
C627        H638   1.083       .  S
C628        C629   1.408       .  A
C629        C630   1.404       .  A
C629        H639   1.083       .  S
C630        H640   1.081       .  S
C641        C642   1.406       .  A
C641        C646   1.405       .  A
C642        C643   1.394       .  A
C642        H655   1.083       .  S
C643        C644   1.401       .  A
C643        H656   1.084       .  S
C644        C645   1.407       .  A
C644        C647   1.479       .  S
C645        C646   1.397       .  A
C645        H657   1.082       .  S
C646        H658   1.083       .  S
C647        C648   1.345       .  D
C647        H659   1.086       .  S
C648        C649   1.481       .  S
C648        H660   1.086       .  S
C649        C650   1.403       .  A
C649        C654   1.406       .  A
C650        C651   1.398       .  A
C650        H661   1.083       .  S
C651        C652   1.407       .  A
C651        H662   1.083       .  S
C652        C653   1.405       .  A
C653        C654   1.393       .  A
C653        H663   1.083       .  S
C654        H664   1.082       .  S
C665        C666   1.403       .  A
C665        C670   1.406       .  A
C666        C667   1.395       .  A
C666        H679   1.083       .  S
C667        C668   1.404       .  A
C667        H680   1.084       .  S
C668        C669   1.409       .  A
C668        C671   1.486       .  S
C669        C670   1.399       .  A
C669        H681   1.080       .  S
C670        H682   1.083       .  S
C671        C672   1.349       .  D
C671        H683   1.084       .  S
C672        C673   1.488       .  S
C672        H684   1.083       .  S
C673        C674   1.405       .  A
C673        C678   1.408       .  A
C674        C675   1.400       .  A
C674        H685   1.083       .  S
C675        C676   1.405       .  A
C675        H686   1.083       .  S
C676        C677   1.405       .  A
C677        C678   1.394       .  A
C677        H687   1.083       .  S
C678        H688   1.081       .  S
C689        C690   1.406       .  A
C689        C694   1.405       .  A
C690        C691   1.395       .  A
C690        H703   1.083       .  S
C691        C692   1.401       .  A
C691        H704   1.083       .  S
C692        C693   1.406       .  A
C692        C695   1.478       .  S
C693        C694   1.394       .  A
C693        H705   1.082       .  S
C694        H706   1.083       .  S
C695        C696   1.343       .  D
C695        H707   1.087       .  S
C696        C697   1.476       .  S
C696        H708   1.086       .  S
C697        C698   1.400       .  A
C697        C702   1.406       .  A
C698        C699   1.395       .  A
C698        H709   1.084       .  S
C699        C700   1.407       .  A
C699        H710   1.083       .  S
C700        C701   1.403       .  A
C701        C702   1.395       .  A
C701        H711   1.083       .  S
C702        H712   1.082       .  S
C713        C714   1.407       .  A
C713        C718   1.408       .  A
C714        C715   1.402       .  A
C714        H727   1.083       .  S
C715        C716   1.405       .  A
C715        H728   1.083       .  S
C716        C717   1.408       .  A
C716        C719   1.494       .  S
C717        C718   1.400       .  A
C717        H729   1.081       .  S
C718        H730   1.083       .  S
C719        C720   1.350       .  D
C719        H731   1.085       .  S
C720        C721   1.492       .  S
C720        H732   1.085       .  S
C721        C722   1.404       .  A
C721        C726   1.409       .  A
C722        C723   1.399       .  A
C722        H733   1.083       .  S
C723        C724   1.406       .  A
C723        H734   1.083       .  S
C724        C725   1.407       .  A
C725        C726   1.402       .  A
C725        H735   1.083       .  S
C726        H736   1.081       .  S
C737        C738   1.406       .  A
C737        C742   1.410       .  A
C738        C739   1.399       .  A
C738        H751   1.083       .  S
C739        C740   1.403       .  A
C739        H752   1.083       .  S
C740        C741   1.408       .  A
C740        C743   1.491       .  S
C741        C742   1.409       .  A
C741        H753   1.083       .  S
C742        H754   1.083       .  S
C743        C744   1.349       .  D
C743        H755   1.086       .  S
C744        C745   1.496       .  S
C744        H756   1.087       .  S
C745        C746   1.406       .  A
C745        C750   1.407       .  A
C746        C747   1.406       .  A
C746        H757   1.083       .  S
C747        C748   1.407       .  A
C747        H758   1.083       .  S
C748        C749   1.408       .  A
C749        C750   1.402       .  A
C749        H759   1.083       .  S
C750        H760   1.083       .  S
C761        C762   1.406       .  A
C761        C766   1.403       .  A
C762        C763   1.395       .  A
C762        H775   1.083       .  S
C763        C764   1.400       .  A
C763        H776   1.083       .  S
C764        C765   1.406       .  A
C764        C767   1.473       .  S
C765        C766   1.391       .  A
C765        H777   1.083       .  S
C766        H778   1.083       .  S
C767        C768   1.341       .  D
C767        H779   1.085       .  S
C768        C769   1.475       .  S
C768        H780   1.087       .  S
C769        C770   1.400       .  A
C769        C774   1.407       .  A
C770        C771   1.391       .  A
C770        H781   1.084       .  S
C771        C772   1.407       .  A
C771        H782   1.083       .  S
C772        C773   1.404       .  A
C773        C774   1.396       .  A
C773        H783   1.083       .  S
C774        H784   1.081       .  S
C785        C786   1.406       .  A
C785        C790   1.405       .  A
C786        C787   1.400       .  A
C786        H799   1.083       .  S
C787        C788   1.403       .  A
C787        H800   1.083       .  S
C788        C789   1.407       .  A
C788        C791   1.485       .  S
C789        C790   1.396       .  A
C789        H801   1.082       .  S
C790        H802   1.083       .  S
C791        C792   1.348       .  D
C791        H803   1.084       .  S
C792        C793   1.487       .  S
C792        H804   1.086       .  S
C793        C794   1.404       .  A
C793        C798   1.408       .  A
C794        C795   1.396       .  A
C794        H805   1.083       .  S
C795        C796   1.405       .  A
C795        H806   1.083       .  S
C796        C797   1.407       .  A
C797        C798   1.399       .  A
C797        H807   1.083       .  S
C798        H808   1.080       .  S
C809        C810   1.407       .  A
C809        C814   1.408       .  A
C810        C811   1.401       .  A
C810        H823   1.083       .  S
C811        C812   1.404       .  A
C811        H824   1.083       .  S
C812        C813   1.409       .  A
C812        C815   1.495       .  S
C813        C814   1.403       .  A
C813        H825   1.082       .  S
C814        H826   1.083       .  S
C815        C816   1.351       .  D
C815        H827   1.085       .  S
C816        C817   1.495       .  S
C816        H828   1.085       .  S
C817        C818   1.404       .  A
C817        C822   1.410       .  A
C818        C819   1.399       .  A
C818        H829   1.083       .  S
C819        C820   1.406       .  A
C819        H830   1.083       .  S
C820        C821   1.408       .  A
C821        C822   1.405       .  A
C821        H831   1.083       .  S
C822        H832   1.081       .  S
C833        C834   1.406       .  A
C833        C838   1.407       .  A
C834        C835   1.399       .  A
C834        H847   1.083       .  S
C835        C836   1.405       .  A
C835        H848   1.083       .  S
C836        C837   1.410       .  A
C836        C839   1.497       .  S
C837        C838   1.405       .  A
C837        H849   1.081       .  S
C838        H850   1.083       .  S
C839        C840   1.351       .  D
C839        H851   1.086       .  S
C840        C841   1.494       .  S
C840        H852   1.084       .  S
C841        C842   1.403       .  A
C841        C846   1.409       .  A
C842        C843   1.400       .  A
C842        H853   1.083       .  S
C843        C844   1.408       .  A
C843        H854   1.083       .  S
C844        C845   1.408       .  A
C845        C846   1.403       .  A
C845        H855   1.083       .  S
C846        H856   1.082       .  S
C857        C858   1.405       .  A
C857        C862   1.404       .  A
C858        C859   1.397       .  A
C858        H871   1.083       .  S
C859        C860   1.404       .  A
C859        H872   1.083       .  S
C860        C861   1.408       .  A
C860        C863   1.484       .  S
C861        C862   1.396       .  A
C861        H873   1.081       .  S
C862        H874   1.083       .  S
C863        C864   1.347       .  D
C863        H875   1.085       .  S
C864        C865   1.482       .  S
C864        H876   1.084       .  S
C865        C866   1.403       .  A
C865        C870   1.406       .  A
C866        C867   1.396       .  A
C866        H877   1.083       .  S
C867        C868   1.406       .  A
C867        H878   1.083       .  S
C868        C869   1.405       .  A
C869        C870   1.396       .  A
C869        H879   1.083       .  S
C870        H880   1.082       .  S
C881        C882   1.406       .  A
C881        C886   1.407       .  A
C882        C883   1.402       .  A
C882        H895   1.083       .  S
C883        C884   1.405       .  A
C883        H896   1.083       .  S
C884        C885   1.406       .  A
C884        C887   1.489       .  S
C885        C886   1.398       .  A
C885        H897   1.082       .  S
C886        H898   1.083       .  S
C887        C888   1.349       .  D
C887        H899   1.086       .  S
C888        C889   1.489       .  S
C888        H900   1.086       .  S
C889        C890   1.404       .  A
C889        C894   1.407       .  A
C890        C891   1.399       .  A
C890        H901   1.083       .  S
C891        C892   1.406       .  A
C891        H902   1.083       .  S
C892        C893   1.408       .  A
C893        C894   1.400       .  A
C893        H903   1.083       .  S
C894        H904   1.082       .  S
C905        C906   1.406       .  A
C905        C910   1.403       .  A
C906        C907   1.395       .  A
C906        H919   1.083       .  S
C907        C908   1.400       .  A
C907        H920   1.084       .  S
C908        C909   1.405       .  A
C908        C911   1.474       .  S
C909        C910   1.393       .  A
C909        H921   1.082       .  S
C910        H922   1.083       .  S
C911        C912   1.344       .  D
C911        H923   1.084       .  S
C912        C913   1.476       .  S
C912        H924   1.086       .  S
C913        C914   1.401       .  A
C913        C918   1.406       .  A
C914        C915   1.393       .  A
C914        H925   1.084       .  S
C915        C916   1.404       .  A
C915        H926   1.083       .  S
C916        C917   1.405       .  A
C917        C918   1.393       .  A
C917        H927   1.083       .  S
C918        H928   1.081       .  S
C929        C930   1.404       .  A
C929        C934   1.404       .  A
C930        C931   1.393       .  A
C930        H943   1.083       .  S
C931        C932   1.401       .  A
C931        H944   1.084       .  S
C932        C933   1.407       .  A
C932        C935   1.477       .  S
C933        C934   1.396       .  A
C933        H945   1.081       .  S
C934        H946   1.083       .  S
C935        C936   1.344       .  D
C935        H947   1.086       .  S
C936        C937   1.477       .  S
C936        H948   1.085       .  S
C937        C938   1.400       .  A
C937        C942   1.407       .  A
C938        C939   1.394       .  A
C938        H949   1.084       .  S
C939        C940   1.407       .  A
C939        H950   1.083       .  S
C940        C941   1.404       .  A
C941        C942   1.395       .  A
C941        H951   1.083       .  S
C942        H952   1.082       .  S
C953        C954   1.405       .  A
C953        C958   1.404       .  A
C954        C955   1.393       .  A
C954        H967   1.083       .  S
C955        C956   1.402       .  A
C955        H968   1.084       .  S
C956        C957   1.412       .  A
C956        C959   1.491       .  S
C957        C958   1.403       .  A
C957        H969   1.080       .  S
C958        H970   1.083       .  S
C959        C960   1.348       .  D
C959        H971   1.084       .  S
C960        C961   1.489       .  S
C960        H972   1.083       .  S
C961        C962   1.403       .  A
C961        C966   1.409       .  A
C962        C963   1.397       .  A
C962        H973   1.083       .  S
C963        C964   1.406       .  A
C963        H974   1.083       .  S
C964        C965   1.406       .  A
C965        C966   1.399       .  A
C965        H975   1.083       .  S
C966        H976   1.081       .  S
C977        C978   1.405       .  A
C977        C982   1.403       .  A
C978        C979   1.394       .  A
C978        H991   1.083       .  S
C979        C980   1.401       .  A
C979        H992   1.084       .  S
C980        C981   1.407       .  A
C980        C983   1.478       .  S
C981        C982   1.394       .  A
C981        H993   1.082       .  S
C982        H994   1.083       .  S
C983        C984   1.344       .  D
C983        H995   1.084       .  S
C984        C985   1.479       .  S
C984        H996   1.085       .  S
C985        C986   1.402       .  A
C985        C990   1.408       .  A
C986        C987   1.393       .  A
C986        H997   1.084       .  S
C987        C988   1.404       .  A
C987        H998   1.083       .  S
C988        C989   1.404       .  A
C989        C990   1.394       .  A
C989        H999   1.083       .  S
C990       H1000   1.080       .  S
C1001      C1002   1.407       .  A
C1001      C1006   1.404       .  A
C1002      C1003   1.397       .  A
C1002      H1015   1.083       .  S
C1003      C1004   1.402       .  A
C1003      H1016   1.083       .  S
C1004      C1005   1.405       .  A
C1004      C1007   1.477       .  S
C1005      C1006   1.391       .  A
C1005      H1017   1.082       .  S
C1006      H1018   1.083       .  S
C1007      C1008   1.344       .  D
C1007      H1019   1.086       .  S
C1008      C1009   1.476       .  S
C1008      H1020   1.086       .  S
C1009      C1010   1.402       .  A
C1009      C1014   1.405       .  A
C1010      C1011   1.395       .  A
C1010      H1021   1.083       .  S
C1011      C1012   1.404       .  A
C1011      H1022   1.083       .  S
C1012      C1013   1.404       .  A
C1013      C1014   1.393       .  A
C1013      H1023   1.083       .  S
C1014      H1024   1.082       .  S
C1025      C1026   1.404       .  A
C1025      C1030   1.405       .  A
C1026      C1027   1.394       .  A
C1026      H1039   1.083       .  S
C1027      C1028   1.401       .  A
C1027      H1040   1.084       .  S
C1028      C1029   1.404       .  A
C1028      C1031   1.473       .  S
C1029      C1030   1.392       .  A
C1029      H1041   1.082       .  S
C1030      H1042   1.083       .  S
C1031      C1032   1.344       .  D
C1031      H1043   1.085       .  S
C1032      C1033   1.476       .  S
C1032      H1044   1.086       .  S
C1033      C1034   1.401       .  A
C1033      C1038   1.407       .  A
C1034      C1035   1.395       .  A
C1034      H1045   1.084       .  S
C1035      C1036   1.406       .  A
C1035      H1046   1.083       .  S
C1036      C1037   1.402       .  A
C1037      C1038   1.391       .  A
C1037      H1047   1.083       .  S
C1038      H1048   1.081       .  S
C1049      C1050   1.406       .  A
C1049      C1054   1.404       .  A
C1050      C1051   1.400       .  A
C1050      H1063   1.083       .  S
C1051      C1052   1.401       .  A
C1051      H1064   1.083       .  S
C1052      C1053   1.404       .  A
C1052      C1055   1.476       .  S
C1053      C1054   1.394       .  A
C1053      H1065   1.083       .  S
C1054      H1066   1.083       .  S
C1055      C1056   1.343       .  D
C1055      H1067   1.086       .  S
C1056      C1057   1.478       .  S
C1056      H1068   1.088       .  S
C1057      C1058   1.401       .  A
C1057      C1062   1.405       .  A
C1058      C1059   1.396       .  A
C1058      H1069   1.084       .  S
C1059      C1060   1.405       .  A
C1059      H1070   1.083       .  S
C1060      C1061   1.407       .  A
C1061      C1062   1.398       .  A
C1061      H1071   1.083       .  S
C1062      H1072   1.082       .  S
C1073      C1074   1.404       .  A
C1073      C1078   1.406       .  A
C1074      C1075   1.397       .  A
C1074      H1087   1.083       .  S
C1075      C1076   1.403       .  A
C1075      H1088   1.083       .  S
C1076      C1077   1.407       .  A
C1076      C1079   1.484       .  S
C1077      C1078   1.401       .  A
C1077      H1089   1.082       .  S
C1078      H1090   1.083       .  S
C1079      C1080   1.347       .  D
C1079      H1091   1.087       .  S
C1080      C1081   1.486       .  S
C1080      H1092   1.086       .  S
C1081      C1082   1.404       .  A
C1081      C1086   1.405       .  A
C1082      C1083   1.402       .  A
C1082      H1093   1.083       .  S
C1083      C1084   1.406       .  A
C1083      H1094   1.083       .  S
C1084      C1085   1.407       .  A
C1085      C1086   1.397       .  A
C1085      H1095   1.083       .  S
C1086      H1096   1.083       .  S
C1097      C1098   1.405       .  A
C1097      C1102   1.405       .  A
C1098      C1099   1.393       .  A
C1098      H1111   1.083       .  S
C1099      C1100   1.401       .  A
C1099      H1112   1.084       .  S
C1100      C1101   1.407       .  A
C1100      C1103   1.479       .  S
C1101      C1102   1.396       .  A
C1101      H1113   1.081       .  S
C1102      H1114   1.083       .  S
C1103      C1104   1.343       .  D
C1103      H1115   1.085       .  S
C1104      C1105   1.479       .  S
C1104      H1116   1.085       .  S
C1105      C1106   1.400       .  A
C1105      C1110   1.408       .  A
C1106      C1107   1.394       .  A
C1106      H1117   1.084       .  S
C1107      C1108   1.406       .  A
C1107      H1118   1.083       .  S
C1108      C1109   1.403       .  A
C1109      C1110   1.396       .  A
C1109      H1119   1.083       .  S
C1110      H1120   1.081       .  S
C1121      C1122   1.406       .  A
C1121      C1126   1.406       .  A
C1122      C1123   1.401       .  A
C1122      H1135   1.083       .  S
C1123      C1124   1.405       .  A
C1123      H1136   1.083       .  S
C1124      C1125   1.407       .  A
C1124      C1127   1.490       .  S
C1125      C1126   1.397       .  A
C1125      H1137   1.082       .  S
C1126      H1138   1.083       .  S
C1127      C1128   1.349       .  D
C1127      H1139   1.084       .  S
C1128      C1129   1.491       .  S
C1128      H1140   1.085       .  S
C1129      C1130   1.404       .  A
C1129      C1134   1.409       .  A
C1130      C1131   1.397       .  A
C1130      H1141   1.083       .  S
C1131      C1132   1.406       .  A
C1131      H1142   1.083       .  S
C1132      C1133   1.407       .  A
C1133      C1134   1.402       .  A
C1133      H1143   1.083       .  S
C1134      H1144   1.080       .  S
C1145      C1146   1.404       .  A
C1145      C1150   1.405       .  A
C1146      C1147   1.393       .  A
C1146      H1159   1.083       .  S
C1147      C1148   1.400       .  A
C1147      H1160   1.083       .  S
C1148      C1149   1.406       .  A
C1148      C1151   1.474       .  S
C1149      C1150   1.393       .  A
C1149      H1161   1.082       .  S
C1150      H1162   1.083       .  S
C1151      C1152   1.343       .  D
C1151      H1163   1.085       .  S
C1152      C1153   1.477       .  S
C1152      H1164   1.086       .  S
C1153      C1154   1.401       .  A
C1153      C1158   1.407       .  A
C1154      C1155   1.394       .  A
C1154      H1165   1.084       .  S
C1155      C1156   1.405       .  A
C1155      H1166   1.083       .  S
C1156      C1157   1.403       .  A
C1157      C1158   1.393       .  A
C1157      H1167   1.083       .  S
C1158      H1168   1.081       .  S
C1169      C1170   1.407       .  A
C1169      C1174   1.408       .  A
C1170      C1171   1.399       .  A
C1170      H1183   1.083       .  S
C1171      C1172   1.403       .  A
C1171      H1184   1.083       .  S
C1172      C1173   1.408       .  A
C1172      C1175   1.490       .  S
C1173      C1174   1.401       .  A
C1173      H1185   1.082       .  S
C1174      H1186   1.083       .  S
C1175      C1176   1.349       .  D
C1175      H1187   1.085       .  S
C1176      C1177   1.493       .  S
C1176      H1188   1.086       .  S
C1177      C1178   1.404       .  A
C1177      C1182   1.409       .  A
C1178      C1179   1.399       .  A
C1178      H1189   1.083       .  S
C1179      C1180   1.406       .  A
C1179      H1190   1.083       .  S
C1180      C1181   1.407       .  A
C1181      C1182   1.403       .  A
C1181      H1191   1.083       .  S
C1182      H1192   1.081       .  S
C1193      C1194   1.406       .  A
C1193      C1198   1.407       .  A
C1194      C1195   1.396       .  A
C1194      H1207   1.083       .  S
C1195      C1196   1.402       .  A
C1195      H1208   1.083       .  S
C1196      C1197   1.409       .  A
C1196      C1199   1.487       .  S
C1197      C1198   1.401       .  A
C1197      H1209   1.081       .  S
C1198      H1210   1.083       .  S
C1199      C1200   1.347       .  D
C1199      H1211   1.083       .  S
C1200      C1201   1.490       .  S
C1200      H1212   1.085       .  S
C1201      C1202   1.402       .  A
C1201      C1206   1.411       .  A
C1202      C1203   1.396       .  A
C1202      H1213   1.084       .  S
C1203      C1204   1.407       .  A
C1203      H1214   1.083       .  S
C1204      C1205   1.404       .  A
C1205      C1206   1.401       .  A
C1205      H1215   1.083       .  S
C1206      H1216   1.080       .  S
C1217      C1218   1.407       .  A
C1217      C1222   1.407       .  A
C1218      C1219   1.401       .  A
C1218      H1231   1.083       .  S
C1219      C1220   1.404       .  A
C1219      H1232   1.083       .  S
C1220      C1221   1.409       .  A
C1220      C1223   1.495       .  S
C1221      C1222   1.400       .  A
C1221      H1233   1.081       .  S
C1222      H1234   1.083       .  S
C1223      C1224   1.350       .  D
C1223      H1235   1.083       .  S
C1224      C1225   1.497       .  S
C1224      H1236   1.085       .  S
C1225      C1226   1.404       .  A
C1225      C1230   1.413       .  A
C1226      C1227   1.396       .  A
C1226      H1237   1.084       .  S
C1227      C1228   1.405       .  A
C1227      H1238   1.083       .  S
C1228      C1229   1.406       .  A
C1229      C1230   1.407       .  A
C1229      H1239   1.083       .  S
C1230      H1240   1.080       .  S
C1241      C1242   1.405       .  A
C1241      C1246   1.404       .  A
C1242      C1243   1.396       .  A
C1242      H1255   1.083       .  S
C1243      C1244   1.401       .  A
C1243      H1256   1.083       .  S
C1244      C1245   1.404       .  A
C1244      C1247   1.473       .  S
C1245      C1246   1.392       .  A
C1245      H1257   1.082       .  S
C1246      H1258   1.083       .  S
C1247      C1248   1.343       .  D
C1247      H1259   1.087       .  S
C1248      C1249   1.473       .  S
C1248      H1260   1.086       .  S
C1249      C1250   1.401       .  A
C1249      C1254   1.404       .  A
C1250      C1251   1.397       .  A
C1250      H1261   1.083       .  S
C1251      C1252   1.407       .  A
C1251      H1262   1.083       .  S
C1252      C1253   1.403       .  A
C1253      C1254   1.390       .  A
C1253      H1263   1.083       .  S
C1254      H1264   1.083       .  S
C1265      C1266   1.405       .  A
C1265      C1270   1.407       .  A
C1266      C1267   1.398       .  A
C1266      H1279   1.083       .  S
C1267      C1268   1.405       .  A
C1267      H1280   1.083       .  S
C1268      C1269   1.411       .  A
C1268      C1271   1.497       .  S
C1269      C1270   1.405       .  A
C1269      H1281   1.080       .  S
C1270      H1282   1.083       .  S
C1271      C1272   1.351       .  D
C1271      H1283   1.085       .  S
C1272      C1273   1.493       .  S
C1272      H1284   1.083       .  S
C1273      C1274   1.404       .  A
C1273      C1278   1.409       .  A
C1274      C1275   1.401       .  A
C1274      H1285   1.083       .  S
C1275      C1276   1.408       .  A
C1275      H1286   1.083       .  S
C1276      C1277   1.407       .  A
C1277      C1278   1.401       .  A
C1277      H1287   1.083       .  S
C1278      H1288   1.082       .  S
C1289      C1290   1.405       .  A
C1289      C1294   1.407       .  A
C1290      C1291   1.401       .  A
C1290      H1303   1.083       .  S
C1291      C1292   1.407       .  A
C1291      H1304   1.083       .  S
C1292      C1293   1.409       .  A
C1292      C1295   1.496       .  S
C1293      C1294   1.399       .  A
C1293      H1305   1.079       .  S
C1294      H1306   1.083       .  S
C1295      C1296   1.353       .  D
C1295      H1307   1.082       .  S
C1296      C1297   1.498       .  S
C1296      H1308   1.083       .  S
C1297      C1298   1.408       .  A
C1297      C1302   1.410       .  A
C1298      C1299   1.401       .  A
C1298      H1309   1.083       .  S
C1299      C1300   1.404       .  A
C1299      H1310   1.083       .  S
C1300      C1301   1.406       .  A
C1301      C1302   1.399       .  A
C1301      H1311   1.083       .  S
C1302      H1312   1.079       .  S
C1313      C1314   1.406       .  A
C1313      C1318   1.405       .  A
C1314      C1315   1.396       .  A
C1314      H1327   1.083       .  S
C1315      C1316   1.400       .  A
C1315      H1328   1.083       .  S
C1316      C1317   1.405       .  A
C1316      C1319   1.477       .  S
C1317      C1318   1.395       .  A
C1317      H1329   1.083       .  S
C1318      H1330   1.083       .  S
C1319      C1320   1.346       .  D
C1319      H1331   1.085       .  S
C1320      C1321   1.478       .  S
C1320      H1332   1.086       .  S
C1321      C1322   1.401       .  A
C1321      C1326   1.407       .  A
C1322      C1323   1.394       .  A
C1322      H1333   1.084       .  S
C1323      C1324   1.406       .  A
C1323      H1334   1.083       .  S
C1324      C1325   1.405       .  A
C1325      C1326   1.396       .  A
C1325      H1335   1.083       .  S
C1326      H1336   1.082       .  S
C1337      C1338   1.405       .  A
C1337      C1342   1.407       .  A
C1338      C1339   1.400       .  A
C1338      H1351   1.083       .  S
C1339      C1340   1.404       .  A
C1339      H1352   1.083       .  S
C1340      C1341   1.406       .  A
C1340      C1343   1.485       .  S
C1341      C1342   1.395       .  A
C1341      H1353   1.082       .  S
C1342      H1354   1.083       .  S
C1343      C1344   1.348       .  D
C1343      H1355   1.085       .  S
C1344      C1345   1.486       .  S
C1344      H1356   1.085       .  S
C1345      C1346   1.407       .  A
C1345      C1350   1.404       .  A
C1346      C1347   1.398       .  A
C1346      H1357   1.081       .  S
C1347      C1348   1.406       .  A
C1347      H1358   1.083       .  S
C1348      C1349   1.404       .  A
C1349      C1350   1.397       .  A
C1349      H1359   1.083       .  S
C1350      H1360   1.083       .  S
C1361      C1362   1.407       .  A
C1361      C1366   1.403       .  A
C1362      C1363   1.401       .  A
C1362      H1375   1.083       .  S
C1363      C1364   1.403       .  A
C1363      H1376   1.083       .  S
C1364      C1365   1.405       .  A
C1364      C1367   1.482       .  S
C1365      C1366   1.393       .  A
C1365      H1377   1.082       .  S
C1366      H1378   1.083       .  S
C1367      C1368   1.345       .  D
C1367      H1379   1.086       .  S
C1368      C1369   1.479       .  S
C1368      H1380   1.087       .  S
C1369      C1370   1.401       .  A
C1369      C1374   1.408       .  A
C1370      C1371   1.393       .  A
C1370      H1381   1.084       .  S
C1371      C1372   1.404       .  A
C1371      H1382   1.083       .  S
C1372      C1373   1.405       .  A
C1373      C1374   1.401       .  A
C1373      H1383   1.083       .  S
C1374      H1384   1.082       .  S
C1385      C1386   1.405       .  A
C1385      C1390   1.404       .  A
C1386      C1387   1.399       .  A
C1386      H1399   1.083       .  S
C1387      C1388   1.403       .  A
C1387      H1400   1.083       .  S
C1388      C1389   1.406       .  A
C1388      C1391   1.482       .  S
C1389      C1390   1.396       .  A
C1389      H1401   1.082       .  S
C1390      H1402   1.083       .  S
C1391      C1392   1.345       .  D
C1391      H1403   1.086       .  S
C1392      C1393   1.480       .  S
C1392      H1404   1.087       .  S
C1393      C1394   1.401       .  A
C1393      C1398   1.407       .  A
C1394      C1395   1.394       .  A
C1394      H1405   1.083       .  S
C1395      C1396   1.403       .  A
C1395      H1406   1.083       .  S
C1396      C1397   1.405       .  A
C1397      C1398   1.400       .  A
C1397      H1407   1.083       .  S
C1398      H1408   1.082       .  S
C1409      C1410   1.404       .  A
C1409      C1414   1.404       .  A
C1410      C1411   1.394       .  A
C1410      H1423   1.083       .  S
C1411      C1412   1.401       .  A
C1411      H1424   1.083       .  S
C1412      C1413   1.407       .  A
C1412      C1415   1.478       .  S
C1413      C1414   1.394       .  A
C1413      H1425   1.081       .  S
C1414      H1426   1.083       .  S
C1415      C1416   1.344       .  D
C1415      H1427   1.086       .  S
C1416      C1417   1.475       .  S
C1416      H1428   1.085       .  S
C1417      C1418   1.401       .  A
C1417      C1422   1.406       .  A
C1418      C1419   1.395       .  A
C1418      H1429   1.083       .  S
C1419      C1420   1.404   1_554  A
C1419      H1430   1.083   1_554  S
C1420      C1421   1.405   1_556  A
C1421      C1422   1.394       .  A
C1421      H1431   1.083       .  S
C1422      H1432   1.082       .  S
C1433      C1434   1.404       .  A
C1433      C1438   1.405       .  A
C1434      C1435   1.397       .  A
C1434      H1447   1.083       .  S
C1435      C1436   1.403       .  A
C1435      H1448   1.083       .  S
C1436      C1437   1.405       .  A
C1436      C1439   1.479       .  S
C1437      C1438   1.392       .  A
C1437      H1449   1.082       .  S
C1438      H1450   1.083       .  S
C1439      C1440   1.346       .  D
C1439      H1451   1.086       .  S
C1440      C1441   1.477       .  S
C1440      H1452   1.085       .  S
C1441      C1442   1.402       .  A
C1441      C1446   1.404       .  A
C1442      C1443   1.396       .  A
C1442      H1453   1.083       .  S
C1443      C1444   1.405       .  A
C1443      H1454   1.083       .  S
C1444      C1445   1.407       .  A
C1445      C1446   1.393       .  A
C1445      H1455   1.083       .  S
C1446      H1456   1.082       .  S
C1457      C1458   1.408       .  A
C1457      C1462   1.407       .  A
C1458      C1459   1.394       .  A
C1458      H1471   1.083       .  S
C1459      C1460   1.399       .  A
C1459      H1472   1.084       .  S
C1460      C1461   1.407       .  A
C1460      C1463   1.481       .  S
C1461      C1462   1.404       .  A
C1461      H1473   1.083       .  S
C1462      H1474   1.083       .  S
C1463      C1464   1.344       .  D
C1463      H1475   1.087       .  S
C1464      C1465   1.484       .  S
C1464      H1476   1.087       .  S
C1465      C1466   1.403       .  A
C1465      C1470   1.405       .  A
C1466      C1467   1.401       .  A
C1466      H1477   1.083       .  S
C1467      C1468   1.407       .  A
C1467      H1478   1.083       .  S
C1468      C1469   1.406       .  A
C1469      C1470   1.397       .  A
C1469      H1479   1.083       .  S
C1470      H1480   1.083       .  S
C1481      C1482   1.408       .  A
C1481      C1486   1.404       .  A
C1482      C1483   1.397       .  A
C1482      H1495   1.083       .  S
C1483      C1484   1.400       .  A
C1483      H1496   1.083       .  S
C1484      C1485   1.405       .  A
C1484      C1487   1.474       .  S
C1485      C1486   1.393       .  A
C1485      H1497   1.083       .  S
C1486      H1498   1.083       .  S
C1487      C1488   1.341       .  D
C1487      H1499   1.086       .  S
C1488      C1489   1.472       .  S
C1488      H1500   1.088       .  S
C1489      C1490   1.399       .  A
C1489      C1494   1.405       .  A
C1490      C1491   1.391       .  A
C1490      H1501   1.084       .  S
C1491      C1492   1.404       .  A
C1491      H1502   1.083       .  S
C1492      C1493   1.406       .  A
C1493      C1494   1.398       .  A
C1493      H1503   1.083       .  S
C1494      H1504   1.083       .  S
C1505      C1506   1.407       .  A
C1505      C1510   1.403       .  A
C1506      C1507   1.401       .  A
C1506      H1519   1.083       .  S
C1507      C1508   1.404       .  A
C1507      H1520   1.083       .  S
C1508      C1509   1.409       .  A
C1508      C1511   1.490       .  S
C1509      C1510   1.395       .  A
C1509      H1521   1.081       .  S
C1510      H1522   1.083       .  S
C1511      C1512   1.347       .  D
C1511      H1523   1.085       .  S
C1512      C1513   1.485       .  S
C1512      H1524   1.084       .  S
C1513      C1514   1.401       .  A
C1513      C1518   1.409       .  A
C1514      C1515   1.391       .  A
C1514      H1525   1.084       .  S
C1515      C1516   1.405       .  A
C1515      H1526   1.083       .  S
C1516      C1517   1.408       .  A
C1517      C1518   1.404       .  A
C1517      H1527   1.083       .  S
C1518      H1528   1.081       .  S
