geometry optimzed in LAMMPS
_audit_creation_date              2020-12-01 
_audit_creation_method            'lammps2cif' 
_symmetry_space_group_name_H-M    'P1' 
_symmetry_Int_Tables_number       1 
_symmetry_cell_setting            triclinic 
loop_ 
_symmetry_equiv_pos_as_xyz 
  x,y,z 
_cell_length_a                    47.79821252 
_cell_length_b                    47.959357765469555 
_cell_length_c                    47.889610643246336 
_cell_angle_alpha                 89.97826774029458 
_cell_angle_beta                  90.06584077029933 
_cell_angle_gamma                 89.89385113337872 
loop_ 
_atom_site_label 
_atom_site_type_symbol 
_atom_site_fract_x 
_atom_site_fract_y 
_atom_site_fract_z 
_atom_site_charge 
Fe1        Fe  0.23337843  0.00149112  0.18537623     1.65800
Fe2        Fe  0.30378739  0.99584126  0.18208249     1.73200
Fe3        Fe  0.27123134  0.99898553  0.24527033     1.54400
O4          O  0.23790371  0.02692159  0.24943323    -0.81400
O5          O  0.31777801  0.96212682  0.20398318    -0.79700
O6          O  0.22304232  0.03710335  0.20654546    -0.83900
O7          O  0.21367744  0.97715612  0.21476715    -0.78700
O8          O  0.29843191  0.03209283  0.24473751    -0.80500
O9          O  0.28652667  0.96694701  0.15450350    -0.83300
C10         C  0.22043689  0.96371045  0.23656830     0.97500
C11         C  0.22249429  0.04076921  0.23271829     1.04900
O12         O  0.26952277  0.99865910  0.20428448    -1.12200
O13         O  0.29344349  0.03010814  0.15840229    -0.74700
O14         O  0.24744916  0.02696630  0.15357037    -0.78200
O15         O  0.24378991  0.96632499  0.24880693    -0.78900
C16         C  0.27051088  0.03892986  0.14853823     0.96400
O17         O  0.24079013  0.96564325  0.16337800    -0.76800
O18         O  0.32515236  0.02347976  0.20753738    -0.82000
C19         C  0.31810062  0.95626132  0.22973072     0.99000
C20         C  0.31951829  0.03729085  0.22949782     1.04900
O21         O  0.30401059  0.97019730  0.24742453    -0.77600
C22         C  0.26260497  0.95549516  0.15232110     1.03200
Fe23       Fe  0.76821605  0.00441923  0.18029403     1.65800
Fe24       Fe  0.69801307  0.00012943  0.17958080     1.73200
Fe25       Fe  0.73304088  0.00197694  0.24162426     1.54400
O26         O  0.76230820  0.97009571  0.24435740    -0.81400
O27         O  0.67668353  0.02517851  0.20685640    -0.79700
O28         O  0.79015838  0.98157092  0.20907782    -0.83900
O29         O  0.77922129  0.04035528  0.20063770    -0.78700
O30         O  0.70146040  0.97205311  0.24375731    -0.80500
O31         O  0.70782174  0.03613634  0.15790470    -0.83300
C32         C  0.77982076  0.04528202  0.22668712     0.97500
C33         C  0.78559888  0.96880150  0.23173278     1.04900
O34         O  0.73302552  0.00202985  0.20071151    -1.12200
O35         O  0.71428635  0.97365233  0.14938833    -0.74700
O36         O  0.75943549  0.96810972  0.15956058    -0.78200
O37         O  0.76506879  0.03158312  0.24414394    -0.78900
C38         C  0.73717659  0.96026707  0.14749864     0.96400
O39         O  0.75246331  0.02862704  0.14831467    -0.76800
O40         O  0.68521645  0.96506014  0.20072371    -0.82000
C41         C  0.68182477  0.03798752  0.22937480     0.99000
C42         C  0.68622653  0.95870358  0.22648142     1.04900
O43         O  0.70405733  0.03403131  0.24338757    -0.77600
C44         C  0.73042035  0.04311715  0.14598817     1.03200
Fe45       Fe  0.18986029  0.22908400  0.00985649     1.65800
Fe46       Fe  0.18629692  0.29964528  0.00702820     1.73200
Fe47       Fe  0.25033934  0.26694628  0.00735967     1.54400
O48         O  0.25470389  0.23521328  0.03692810    -0.81400
O49         O  0.20905118  0.31685570  0.97520631    -0.79700
O50         O  0.21235807  0.21714466  0.04414522    -0.83900
O51         O  0.21831806  0.20973168  0.98436377    -0.78700
O52         O  0.25100134  0.29574168  0.03957970    -0.80500
O53         O  0.15957523  0.28398530  0.97647402    -0.83300
C54         C  0.24148195  0.21476149  0.97260977     0.97500
C55         C  0.23828387  0.21856250  0.04955637     1.04900
O56         O  0.20896802  0.26530189  0.00789519    -1.12200
O57         O  0.16140357  0.28763413  0.04018329    -0.74700
O58         O  0.15900859  0.24170185  0.03715431    -0.78200
O59         O  0.25432418  0.23774769  0.97554505    -0.78900
C60         C  0.15246905  0.26439753  0.04891106     0.96400
O61         O  0.16609325  0.23792790  0.97511185    -0.76800
O62         O  0.21076870  0.31911086  0.03644753    -0.82000
C63         C  0.23434826  0.31601185  0.96743642     0.99000
C64         C  0.23454480  0.31500434  0.04756657     1.04900
O65         O  0.25189059  0.29871146  0.97750568    -0.77600
C66         C  0.15586329  0.26026346  0.96514686     1.03200
Fe67       Fe  0.18095626  0.76646675  0.01099867     1.65800
Fe68       Fe  0.18077847  0.69686694  0.00386623     1.73200
Fe69       Fe  0.24224197  0.73211654  0.00633179     1.54400
O70         O  0.24354669  0.76123577  0.97431564    -0.81400
O71         O  0.20872370  0.67491729  0.02855640    -0.79700
O72         O  0.21021504  0.78967477  0.98974211    -0.83900
O73         O  0.20079712  0.77487022  0.04796963    -0.78700
O74         O  0.24486734  0.70053276  0.97639742    -0.80500
O75         O  0.15959945  0.70524954  0.04044755    -0.83300
C76         C  0.22702779  0.77692928  0.05151663     0.97500
C77         C  0.23149088  0.78485478  0.97471265     1.04900
O78         O  0.20149088  0.73169007  0.00680199    -1.12200
O79         O  0.15012640  0.71459502  0.97818672    -0.74700
O80         O  0.16089144  0.75953004  0.97398696    -0.78200
O81         O  0.24459472  0.76411040  0.03605390    -0.78900
C82         C  0.14847101  0.73785573  0.96533354     0.96400
O83         O  0.14826816  0.74943627  0.03338861    -0.76800
O84         O  0.20151330  0.68556086  0.96800579    -0.82000
C85         C  0.23016474  0.68132303  0.04290127     0.99000
C86         C  0.22744464  0.68614223  0.96232118     1.04900
O87         O  0.24394642  0.70352857  0.03853795    -0.77600
C88         C  0.14679264  0.72722579  0.04758251     1.03200
Fe89       Fe  0.00853379  0.17589632  0.77772215     1.65800
Fe90       Fe  0.00004920  0.17520250  0.70788257     1.73200
Fe91       Fe  0.00305683  0.23653114  0.74270396     1.54400
O92         O  0.97033990  0.23775184  0.77078109    -0.81400
O93         O  0.02391667  0.20343838  0.68581495    -0.79700
O94         O  0.98525665  0.20470321  0.80005585    -0.83900
O95         O  0.04456501  0.19708083  0.78719265    -0.78700
O96         O  0.97405553  0.23909777  0.70999269    -0.80500
O97         O  0.03696445  0.15398398  0.71532057    -0.83300
C98         C  0.04671770  0.22330272  0.78977469     0.97500
C99         C  0.97037836  0.22602981  0.79457545     1.04900
O100        O  0.00371773  0.19590060  0.74276169    -1.12200
O101        O  0.97521417  0.14429657  0.72541032    -0.74700
O102        O  0.97234774  0.15415262  0.77064602    -0.78200
O103        O  0.03141831  0.24010336  0.77588083    -0.78900
C104        C  0.96302649  0.14225496  0.74892233     0.96400
O105        O  0.03339906  0.14481734  0.76057379    -0.76800
O106        O  0.96348951  0.19565239  0.69757924    -0.82000
C107        C  0.03950443  0.22376371  0.69266313     0.99000
C108        C  0.95872115  0.22168298  0.69697915     1.04900
O109        O  0.03616684  0.23727789  0.71523145    -0.77600
C110        C  0.04610404  0.14254517  0.73738445     1.03200
Fe111      Fe  0.00262181  0.17908053  0.23370519     1.65800
Fe112      Fe  0.00085834  0.17535246  0.30476765     1.73200
Fe113      Fe  0.00186001  0.23943207  0.27233079     1.54400
O114        O  0.03385797  0.24362370  0.24284232    -0.81400
O115        O  0.97062702  0.19943168  0.32303712    -0.79700
O116        O  0.03434782  0.20381362  0.21879315    -0.83900
O117        O  0.97307142  0.20499972  0.21648168    -0.78700
O118        O  0.03215596  0.23993215  0.30362463    -0.80500
O119        O  0.96859509  0.15067587  0.29041054    -0.83300
C120        C  0.96394833  0.22951767  0.22050812     0.97500
C121        C  0.04349479  0.22818969  0.22343587     1.04900
O122        O  0.00176229  0.19809493  0.27024771    -1.12200
O123        O  0.03187142  0.14835698  0.29171627    -0.74700
O124        O  0.03324667  0.15133850  0.24560508    -0.78200
O125        O  0.97199363  0.24441412  0.24096046    -0.78900
C126        C  0.04288460  0.14221503  0.26849690     0.96400
O127        O  0.97030447  0.15235182  0.24398499    -0.76800
O128        O  0.03207845  0.19794116  0.32343533    -0.82000
C129        C  0.96050964  0.22369046  0.32026973     0.99000
C130        C  0.04153585  0.22253611  0.32141348     1.04900
O131        O  0.96957526  0.24062576  0.30188442    -0.77600
C132        C  0.95897148  0.14438614  0.26656354     1.03200
Fe133      Fe  0.00435871  0.82487091  0.23225088     1.65800
Fe134      Fe  0.00209464  0.82935472  0.30284185     1.73200
Fe135      Fe  0.00916401  0.76569784  0.27129387     1.54400
O136        O  0.98261537  0.75828842  0.23735658    -0.81400
O137        O  0.03609255  0.81109623  0.32122890    -0.79700
O138        O  0.97273188  0.79975412  0.21852623    -0.83900
O139        O  0.03414064  0.79884565  0.21534180    -0.78700
O140        O  0.97471411  0.76256503  0.29714672    -0.80500
O141        O  0.02927477  0.85966965  0.28829367    -0.83300
C142        C  0.04821300  0.77763330  0.22266570     0.97500
C143        C  0.96905512  0.77367760  0.22038628     1.04900
O144        O  0.00535293  0.80655531  0.26883756    -1.12200
O145        O  0.96718772  0.84968671  0.28857303    -0.74700
O146        O  0.97396007  0.85343867  0.24307785    -0.78200
O147        O  0.04358763  0.76448241  0.24519706    -0.78900
C148        C  0.95975427  0.85844694  0.26479321     0.96400
O149        O  0.03611821  0.85113052  0.24309663    -0.76800
O150        O  0.97497126  0.80190703  0.32171888    -0.82000
C151        C  0.04576081  0.78655335  0.32159657     0.99000
C152        C  0.96508698  0.77791564  0.31648684     1.04900
O153        O  0.03653067  0.76763418  0.30532416    -0.77600
C154        C  0.04234655  0.86360311  0.26554476     1.03200
Fe155      Fe  0.81623632  0.77026881  0.01087109     1.65800
Fe156      Fe  0.81985274  0.69961315  0.00787138     1.73200
Fe157      Fe  0.75584204  0.73263691  0.00740908     1.54400
O158        O  0.75062427  0.76398719  0.03691392    -0.81400
O159        O  0.79798511  0.68379738  0.97457377    -0.79700
O160        O  0.79255993  0.78301422  0.04404408    -0.83900
O161        O  0.78959152  0.78899370  0.98307352    -0.78700
O162        O  0.75424596  0.70359197  0.03933087    -0.80500
O163        O  0.84779073  0.71514304  0.97845138    -0.83300
C164        C  0.76721239  0.78320490  0.97017175     0.97500
C165        C  0.76669666  0.78095284  0.04947052     1.04900
O166        O  0.79720733  0.73410444  0.00878869    -1.12200
O167        O  0.84428745  0.71117332  0.04163341    -0.74700
O168        O  0.84565625  0.75722939  0.03952064    -0.78200
O169        O  0.75299812  0.76149598  0.97534070    -0.78900
C170        C  0.85274180  0.73442348  0.05089268     0.96400
O171        O  0.84067038  0.76108560  0.97700764    -0.76800
O172        O  0.79419989  0.67971190  0.03621137    -0.82000
C173        C  0.77301257  0.68576766  0.96593899     0.99000
C174        C  0.77029785  0.68388110  0.04707052     1.04900
O175        O  0.75509853  0.70171182  0.97727652    -0.77600
C176        C  0.85091553  0.73886816  0.96709238     1.03200
Fe177      Fe  0.23443870  0.00393001  0.82857444     1.65800
Fe178      Fe  0.30504447  0.99657086  0.82969597     1.73200
Fe179      Fe  0.26973568  0.99656103  0.76761476     1.54400
O180        O  0.24011318  0.96494818  0.76694155    -0.81400
O181        O  0.32645036  0.02095997  0.80145470    -0.79700
O182        O  0.21257286  0.97820610  0.80203221    -0.83900
O183        O  0.22308307  0.03801502  0.80497193    -0.78700
O184        O  0.30099614  0.96645663  0.76644929    -0.80500
O185        O  0.29682281  0.03274145  0.85149463    -0.83300
C186        C  0.22295181  0.04074672  0.77860039     0.97500
C187        C  0.21703493  0.96410247  0.78008022     1.04900
O188        O  0.26976192  0.99898652  0.80856975    -1.12200
O189        O  0.28846896  0.97106129  0.86045335    -0.74700
O190        O  0.24253895  0.96952536  0.85311052    -0.78200
O191        O  0.23823077  0.02593964  0.76275607    -0.78900
C192        C  0.26464152  0.96010899  0.86446692     0.96400
O193        O  0.25074369  0.03159133  0.85732788    -0.76800
O194        O  0.31712435  0.96080206  0.80961020    -0.82000
C195        C  0.32069636  0.03326662  0.77869075     0.99000
C196        C  0.31601457  0.95357624  0.78418101     1.04900
O197        O  0.29868827  0.02840794  0.76463567    -0.77600
C198        C  0.27441021  0.04284664  0.86132726     1.03200
Fe199      Fe  0.99637132  0.82271955  0.77807657     1.65800
Fe200      Fe  0.00256310  0.82339270  0.70838596     1.73200
Fe201      Fe  0.99864090  0.76182706  0.74292309     1.54400
O202        O  0.03081437  0.75893082  0.77189303    -0.81400
O203        O  0.97748271  0.79616764  0.68604951    -0.79700
O204        O  0.01723299  0.79272091  0.80060647    -0.83900
O205        O  0.95909043  0.80385932  0.78744250    -0.78700
O206        O  0.02815368  0.75880378  0.71067779    -0.80500
O207        O  0.96655670  0.84498363  0.71722601    -0.83300
C208        C  0.95526909  0.77772456  0.78957562     0.97500
C209        C  0.03093882  0.77063669  0.79570023     1.04900
O210        O  0.99931667  0.80243227  0.74304749    -1.12200
O211        O  0.02892336  0.85325249  0.72604081    -0.74700
O212        O  0.03412536  0.84124976  0.77055025    -0.78200
O213        O  0.96941104  0.76016903  0.77535443    -0.78900
C214        C  0.04286851  0.85337594  0.74874422     0.96400
O215        O  0.97427346  0.85607608  0.76141028    -0.76800
O216        O  0.03788399  0.80226825  0.69711771    -0.82000
C217        C  0.96263341  0.77508875  0.69220831     0.99000
C218        C  0.04279219  0.77630750  0.69693833     1.04900
O219        O  0.96602921  0.76140194  0.71466394    -0.77600
C220        C  0.95965514  0.85760833  0.73936138     1.03200
Fe221      Fe  0.82286596  0.23381036  0.00794529     1.65800
Fe222      Fe  0.82135818  0.30415392  0.00316292     1.73200
Fe223      Fe  0.76014835  0.26745070  0.00293411     1.54400
O224        O  0.75957665  0.23813436  0.97114512    -0.81400
O225        O  0.79248062  0.32432109  0.02767665    -0.79700
O226        O  0.79712614  0.21220602  0.98102650    -0.83900
O227        O  0.80008148  0.22055111  0.04178977    -0.78700
O228        O  0.75792613  0.29920715  0.97291314    -0.80500
O229        O  0.84298322  0.29561917  0.03945444    -0.83300
C230        C  0.77391148  0.22043923  0.04620399     0.97500
C231        C  0.77452099  0.21644898  0.96777703     1.04900
O232        O  0.80132203  0.26843520  0.00460569    -1.12200
O233        O  0.85314768  0.28934394  0.97758923    -0.74700
O234        O  0.84683813  0.24372074  0.97391450    -0.78200
O235        O  0.75692184  0.23557093  0.03235143    -0.78900
C236        C  0.85799015  0.26621042  0.96565813     0.96400
O237        O  0.85174669  0.25020143  0.03581283    -0.76800
O238        O  0.80091321  0.31626800  0.96750951    -0.82000
C239        C  0.76974620  0.31837962  0.03986953     0.99000
C240        C  0.77535434  0.31503148  0.96047354     1.04900
O241        O  0.75636114  0.29603918  0.03509229    -0.77600
C242        C  0.85460714  0.27348465  0.04808014     1.03200
Fe243      Fe  0.77077485  0.99298944  0.82906843     1.65800
Fe244      Fe  0.70128095  0.00238458  0.83020035     1.73200
Fe245      Fe  0.73519794  0.99941168  0.76807150     1.54400
O246        O  0.76592577  0.02992891  0.76634278    -0.81400
O247        O  0.67780792  0.98002075  0.80209311    -0.79700
O248        O  0.79390763  0.01527982  0.80057429    -0.83900
O249        O  0.77909776  0.95696044  0.80769441    -0.78700
O250        O  0.70465801  0.03099812  0.76670142    -0.80500
O251        O  0.70791546  0.96533720  0.85053716    -0.83300
C252        C  0.78000100  0.95331657  0.78146517     0.97500
C253        C  0.78947258  0.02956664  0.77872812     1.04900
O254        O  0.73578020  0.99835365  0.80892577    -1.12200
O255        O  0.71958765  0.02606097  0.86148830    -0.74700
O256        O  0.76481297  0.02926931  0.85104182    -0.78200
O257        O  0.76606900  0.96851813  0.76450318    -0.78900
C258        C  0.74322465  0.03791261  0.86375535     0.96400
O259        O  0.75311753  0.96904578  0.86043591    -0.76800
O260        O  0.69213207  0.03901472  0.81074451    -0.82000
C261        C  0.68242724  0.96578820  0.78030991     0.99000
C262        C  0.69173349  0.04537394  0.78507720     1.04900
O263        O  0.70486278  0.96845703  0.76628531    -0.77600
C264        C  0.72978250  0.95664869  0.86261199     1.03200
Fe265      Fe  0.50132402  0.26597450  0.33606290     1.65800
Fe266      Fe  0.49968842  0.19506694  0.33790334     1.73200
Fe267      Fe  0.49842550  0.22918421  0.27468487     1.54400
O268        O  0.46912149  0.26086337  0.27162022    -0.81400
O269        O  0.52886779  0.17652577  0.31305342    -0.79700
O270        O  0.47066502  0.28357761  0.31214554    -0.83900
O271        O  0.53167845  0.28155867  0.31032617    -0.78700
O272        O  0.46583466  0.20088661  0.27426369    -0.80500
O273        O  0.53282033  0.20709338  0.36310445    -0.83300
C274        C  0.53984770  0.27729272  0.28552843     0.97500
C275        C  0.46114861  0.28031072  0.28772103     1.04900
O276        O  0.49986738  0.23009379  0.31608686    -1.12200
O277        O  0.46928808  0.20886067  0.36506385    -0.74700
O278        O  0.47031271  0.25515245  0.36357240    -0.78200
O279        O  0.53028065  0.25794988  0.27015572    -0.78900
C280        C  0.45959408  0.23249996  0.37180210     0.96400
O281        O  0.53284055  0.25339540  0.36218554    -0.76800
O282        O  0.46751130  0.17855280  0.31488882    -0.82000
C283        C  0.53742307  0.17911434  0.28820466     0.99000
C284        C  0.45652711  0.18271141  0.29116758     1.04900
O285        O  0.52797363  0.19763205  0.27174406    -0.77600
C286        C  0.54341738  0.23039584  0.36972167     1.03200
Fe287      Fe  0.32550893  0.50013279  0.27904595     1.65800
Fe288      Fe  0.33130623  0.50055591  0.20804491     1.73200
Fe289      Fe  0.26613757  0.49981925  0.23863999     1.54400
O290        O  0.26087742  0.46895660  0.26875475    -0.81400
O291        O  0.30845682  0.53134094  0.18958014    -0.79700
O292        O  0.30010920  0.46917059  0.29397808    -0.83900
O293        O  0.29906541  0.53031176  0.29461481    -0.78700
O294        O  0.26667884  0.46861194  0.20872179    -0.80500
O295        O  0.35695054  0.53164818  0.22281462    -0.83300
C296        C  0.27442215  0.53879453  0.28948976     0.97500
C297        C  0.27581721  0.45998027  0.28884062     1.04900
O298        O  0.30753690  0.50019728  0.24194606    -1.12200
O299        O  0.35682656  0.46907467  0.22215775    -0.74700
O300        O  0.35359347  0.46926524  0.26845784    -0.78200
O301        O  0.26007152  0.53013375  0.26891413    -0.78900
C302        C  0.36268500  0.45894688  0.24584742     0.96400
O303        O  0.35296260  0.53155632  0.26906879    -0.76800
O304        O  0.30854415  0.47027009  0.18838162    -0.82000
C305        C  0.28396076  0.54109371  0.19133909     0.99000
C306        C  0.28436092  0.45993043  0.19096138     1.04900
O307        O  0.26601618  0.53128919  0.20838044    -0.77600
C308        C  0.36264401  0.54158958  0.24662089     1.03200
Fe309      Fe  0.26830234  0.32330797  0.50484793     1.65800
Fe310      Fe  0.19768960  0.32722288  0.50916638     1.73200
Fe311      Fe  0.23034688  0.26347538  0.50845628     1.54400
O312        O  0.26264697  0.25826636  0.47972008    -0.81400
O313        O  0.18284479  0.30591191  0.54280768    -0.79700
O314        O  0.27999389  0.30033134  0.47086276    -0.83900
O315        O  0.28747678  0.29559394  0.53150577    -0.78700
O316        O  0.20201241  0.26298354  0.47570087    -0.80500
O317        O  0.21429336  0.35536910  0.53768856    -0.83300
C318        C  0.28160938  0.27357450  0.54496470     0.97500
C319        C  0.27914542  0.27428791  0.46647941     1.04900
O320        O  0.23205919  0.30458392  0.50751749    -1.12200
O321        O  0.20847433  0.35083453  0.47498695    -0.74700
O322        O  0.25469294  0.35360475  0.47723771    -0.78200
O323        O  0.25898276  0.26019818  0.54106511    -0.78900
C324        C  0.23155217  0.35986489  0.46583653     0.96400
O325        O  0.26008712  0.34731489  0.53917392    -0.76800
O326        O  0.17655530  0.30158507  0.48168821    -0.82000
C327        C  0.18287282  0.28055475  0.54991377     0.99000
C328        C  0.18150027  0.27868550  0.46928428     1.04900
O329        O  0.19814592  0.26253766  0.53772118    -0.77600
C330        C  0.23821741  0.35864857  0.54883660     1.03200
Fe331      Fe  0.26759821  0.67574021  0.50679669     1.65800
Fe332      Fe  0.19689542  0.67538430  0.50826339     1.73200
Fe333      Fe  0.23228488  0.73727798  0.51077194     1.54400
O334        O  0.25963448  0.73813913  0.54418289    -0.81400
O335        O  0.17750122  0.70396098  0.48220984    -0.79700
O336        O  0.28720901  0.70170546  0.53495916    -0.83900
O337        O  0.28158660  0.69904606  0.47414487    -0.78700
O338        O  0.19891801  0.73866419  0.53870880    -0.80500
O339        O  0.20785105  0.65381235  0.47260723    -0.83300
C340        C  0.28232074  0.72520589  0.47070447     0.97500
C341        C  0.28174388  0.72397043  0.54819590     1.04900
O342        O  0.23224518  0.69622772  0.50872790    -1.12200
O343        O  0.21133083  0.64414133  0.53498152    -0.74700
O344        O  0.25699465  0.65106302  0.53972444    -0.78200
O345        O  0.26598701  0.74168950  0.48362996    -0.78900
C346        C  0.23447650  0.63947291  0.54724883     0.96400
O347        O  0.25352171  0.64713862  0.47760778    -0.76800
O348        O  0.18247352  0.69541548  0.54322908    -0.82000
C349        C  0.18387273  0.72687925  0.47047659     0.99000
C350        C  0.18310807  0.72082965  0.55041911     1.04900
O351        O  0.20549875  0.74064692  0.47718854    -0.77600
C352        C  0.23081604  0.64350105  0.46433156     1.03200
Fe353      Fe  0.32831850  0.49485744  0.73563887     1.65800
Fe354      Fe  0.33388029  0.50309433  0.80546257     1.73200
Fe355      Fe  0.26954498  0.49960163  0.77468254     1.54400
O356        O  0.26508749  0.53096800  0.74505596    -0.81400
O357        O  0.30863520  0.47671474  0.82886556    -0.79700
O358        O  0.29764700  0.51678094  0.71507184    -0.83900
O359        O  0.30702929  0.45841882  0.72786409    -0.78700
O360        O  0.26868709  0.52968834  0.80605808    -0.80500
O361        O  0.35645706  0.46794634  0.79579665    -0.83300
C362        C  0.28061874  0.45553247  0.72781362     0.97500
C363        C  0.27568147  0.53050914  0.72071453     1.04900
O364        O  0.31050609  0.49937522  0.77201289    -1.12200
O365        O  0.36207898  0.53030224  0.78600124    -0.74700
O366        O  0.34977282  0.53153032  0.74103685    -0.78200
O367        O  0.26455474  0.47024541  0.74305689    -0.78900
C368        C  0.36262745  0.54163562  0.76191679     0.96400
O369        O  0.36154803  0.47119152  0.74992478    -0.76800
O370        O  0.31274788  0.53790876  0.81874083    -0.82000
C371        C  0.28643018  0.46272602  0.82447795     0.99000
C372        C  0.28690269  0.54378020  0.81933085     1.04900
O373        O  0.27053783  0.46764253  0.80372844    -0.77600
C374        C  0.36656188  0.45929471  0.77300106     1.03200
Fe375      Fe  0.50346900  0.73216511  0.33822481     1.65800
Fe376      Fe  0.50234443  0.80325730  0.33747713     1.73200
Fe377      Fe  0.50421888  0.76686822  0.27562983     1.54400
O378        O  0.53613343  0.73764999  0.27362706    -0.81400
O379        O  0.47284363  0.82019618  0.31157010    -0.79700
O380        O  0.53331522  0.71399637  0.31353014    -0.83900
O381        O  0.47219798  0.71518298  0.31443602    -0.78700
O382        O  0.53437265  0.79790299  0.27343300    -0.80500
O383        O  0.46972037  0.79089012  0.36265175    -0.83300
C384        C  0.46462090  0.71736086  0.28915406     0.97500
C385        C  0.54358627  0.71774793  0.28947611     1.04900
O386        O  0.50334051  0.76742583  0.31699656    -1.12200
O387        O  0.53265198  0.79130418  0.36577583    -0.74700
O388        O  0.53529967  0.74506080  0.36370246    -0.78200
O389        O  0.47474817  0.73537797  0.27254732    -0.78900
C390        C  0.54422022  0.76840219  0.37222110     0.96400
O391        O  0.47307911  0.74477469  0.36577184    -0.76800
O392        O  0.53403606  0.82021118  0.31424165    -0.82000
C393        C  0.46318269  0.81542858  0.28743145     0.99000
C394        C  0.54368312  0.81650074  0.28989119     1.04900
O395        O  0.47192914  0.79566710  0.27208309    -0.77600
C396        C  0.46115397  0.76759478  0.37164033     1.03200
Fe397      Fe  0.67667556  0.49386772  0.27776055     1.65800
Fe398      Fe  0.66928285  0.49795024  0.20710980     1.73200
Fe399      Fe  0.73497518  0.49785700  0.23640348     1.54400
O400        O  0.73960660  0.52917072  0.26627753    -0.81400
O401        O  0.69325291  0.46982659  0.18554677    -0.79700
O402        O  0.70319307  0.52265932  0.29455710    -0.83900
O403        O  0.70245210  0.46176772  0.28993419    -0.78700
O404        O  0.73372275  0.52852001  0.20582419    -0.80500
O405        O  0.64575895  0.46427876  0.21994194    -0.83300
C406        C  0.72794457  0.45594555  0.28550922     0.97500
C407        C  0.72589513  0.53471697  0.28837728     1.04900
O408        O  0.69375279  0.49656060  0.24041562    -1.12200
O409        O  0.64278461  0.52730216  0.22425076    -0.74700
O410        O  0.64954050  0.52633639  0.27023109    -0.78200
O411        O  0.74241389  0.46791120  0.26680483    -0.78900
C412        C  0.63890876  0.53710122  0.24851845     0.96400
O413        O  0.64824723  0.46414467  0.26624826    -0.76800
O414        O  0.69018034  0.53096194  0.18979479    -0.82000
C415        C  0.71734339  0.45893886  0.18774496     0.99000
C416        C  0.71519956  0.53957779  0.19031127     1.04900
O417        O  0.73480410  0.46633813  0.20642749    -0.77600
C418        C  0.63991466  0.45374165  0.24346482     1.03200
Fe419      Fe  0.73731514  0.67940832  0.50322186     1.65800
Fe420      Fe  0.80773335  0.67402004  0.50287029     1.73200
Fe421      Fe  0.77667124  0.73836918  0.50187961     1.54400
O422        O  0.74362566  0.74243741  0.47398402    -0.81400
O423        O  0.82392199  0.69532095  0.53603992    -0.79700
O424        O  0.72455854  0.70030013  0.46813857    -0.83900
O425        O  0.71921953  0.70941323  0.52832291    -0.78700
O426        O  0.80376176  0.73744030  0.46825926    -0.80500
O427        O  0.79179192  0.64581039  0.53203855    -0.83300
C428        C  0.72611423  0.73229248  0.53965566     0.97500
C429        C  0.72611836  0.72609956  0.46243406     1.04900
O430        O  0.77392969  0.69744812  0.50262854    -1.12200
O431        O  0.79438006  0.65143558  0.46892623    -0.74700
O432        O  0.74902736  0.64649416  0.47738347    -0.78200
O433        O  0.74924384  0.74421828  0.53472026    -0.78900
C434        C  0.77070385  0.64127353  0.46297981     0.96400
O435        O  0.74757961  0.65861497  0.53911051    -0.76800
O436        O  0.82872724  0.69875314  0.47456435    -0.82000
C437        C  0.82358328  0.72060535  0.54364183     0.99000
C438        C  0.82369752  0.72126558  0.46156801     1.04900
O439        O  0.80921882  0.73908519  0.53091304    -0.77600
C440        C  0.76955567  0.64586073  0.54660650     1.03200
Fe441      Fe  0.67818964  0.49692825  0.73386353     1.65800
Fe442      Fe  0.67327774  0.50321102  0.80397121     1.73200
Fe443      Fe  0.73710317  0.50430048  0.77212900     1.54400
O444        O  0.74349261  0.47661580  0.73925217    -0.81400
O445        O  0.69240626  0.53856628  0.81787963    -0.79700
O446        O  0.70155754  0.46226693  0.72510823    -0.83900
O447        O  0.70647838  0.52223969  0.71343261    -0.78700
O448        O  0.73859640  0.47105177  0.79975314    -0.80500
O449        O  0.64373130  0.52974494  0.78564008    -0.83300
C450        C  0.72626615  0.53853202  0.72016293     0.97500
C451        C  0.72804140  0.46118027  0.72414252     1.04900
O452        O  0.69623767  0.50155112  0.77010607    -1.12200
O453        O  0.65193757  0.46740003  0.79409732    -0.74700
O454        O  0.64692756  0.47064222  0.74818146    -0.78200
O455        O  0.73830050  0.53727627  0.74388378    -0.78900
C456        C  0.64173521  0.45886371  0.77131185     0.96400
O457        O  0.65499563  0.53201572  0.74044135    -0.76800
O458        O  0.70057025  0.47770195  0.82611501    -0.82000
C459        C  0.71784144  0.54557518  0.81886493     0.99000
C460        C  0.72331260  0.46495473  0.82063928     1.04900
O461        O  0.73672833  0.53297726  0.80497968    -0.77600
C462        C  0.64295364  0.54166386  0.76187765     1.03200
Fe463      Fe  0.51067968  0.73684955  0.66877128     1.65800
Fe464      Fe  0.50331586  0.80713301  0.67171389     1.73200
Fe465      Fe  0.50338657  0.76855755  0.73206037     1.54400
O466        O  0.47263625  0.73798520  0.73116835    -0.81400
O467        O  0.52859710  0.82643400  0.70034167    -0.79700
O468        O  0.48420141  0.71367233  0.69335901    -0.83900
O469        O  0.54439391  0.72385247  0.69193752    -0.78700
O470        O  0.47194155  0.79840193  0.73491654    -0.80500
O471        O  0.53907219  0.80026364  0.64845226    -0.83300
C472        C  0.54778043  0.72261442  0.71820269     0.97500
C473        C  0.47015479  0.71664759  0.71559381     1.04900
O474        O  0.50582691  0.77087598  0.69096853    -1.12200
O475        O  0.47660736  0.79254775  0.64091060    -0.74700
O476        O  0.47657894  0.74631243  0.64445620    -0.78200
O477        O  0.53380323  0.73768857  0.73501405    -0.78900
C478        C  0.46609856  0.76888461  0.63542709     0.96400
O479        O  0.53858620  0.75460704  0.64109376    -0.76800
O480        O  0.46812477  0.81855611  0.69324481    -0.82000
C481        C  0.53994598  0.82075717  0.72361555     0.99000
C482        C  0.45986194  0.81504701  0.71811826     1.04900
O483        O  0.53418306  0.79872887  0.73727452    -0.77600
C484        C  0.54924587  0.77852514  0.63740720     1.03200
Fe485      Fe  0.50042817  0.26754811  0.68295379     1.65800
Fe486      Fe  0.50216694  0.19658247  0.68111625     1.73200
Fe487      Fe  0.50082054  0.23050538  0.74447155     1.54400
O488        O  0.53023940  0.26214478  0.74876894    -0.81400
O489        O  0.47265158  0.17755857  0.70526170    -0.79700
O490        O  0.53027291  0.28495150  0.70823112    -0.83900
O491        O  0.46951237  0.28328145  0.70772293    -0.78700
O492        O  0.53326595  0.20163734  0.74606081    -0.80500
O493        O  0.46918467  0.20886312  0.65574315    -0.83300
C494        C  0.46010571  0.27918311  0.73206953     0.97500
C495        C  0.53861766  0.28189654  0.73318372     1.04900
O496        O  0.50118822  0.23156357  0.70298924    -1.12200
O497        O  0.53291185  0.21055151  0.65415951    -0.74700
O498        O  0.53211558  0.25681192  0.65609632    -0.78200
O499        O  0.46893041  0.25975380  0.74788677    -0.78900
C500        C  0.54270651  0.23418017  0.64755578     0.96400
O501        O  0.46943808  0.25529170  0.65563053    -0.76800
O502        O  0.53400536  0.18001659  0.70481560    -0.82000
C503        C  0.46245821  0.18029845  0.72947353     0.99000
C504        C  0.54352021  0.18379533  0.72927198     1.04900
O505        O  0.47070835  0.19915411  0.74619883    -0.77600
C506        C  0.45882663  0.23217046  0.64858774     1.03200
Fe507      Fe  0.73482743  0.32709188  0.50321817     1.65800
Fe508      Fe  0.80589870  0.32854148  0.50787073     1.73200
Fe509      Fe  0.77117768  0.26606310  0.50912327     1.54400
O510        O  0.74155620  0.26498742  0.54093920    -0.81400
O511        O  0.82645739  0.30100768  0.48194725    -0.79700
O512        O  0.71470075  0.30183364  0.53131658    -0.83900
O513        O  0.72145155  0.30278719  0.47057326    -0.78700
O514        O  0.80273799  0.26523486  0.53923711    -0.80500
O515        O  0.79580365  0.35114964  0.47239988    -0.83300
C516        C  0.72232912  0.27662460  0.46688086     0.97500
C517        C  0.71962152  0.27959041  0.54474533     1.04900
O518        O  0.77063858  0.30714889  0.50676505    -1.12200
O519        O  0.79023126  0.35861526  0.53455347    -0.74700
O520        O  0.74410113  0.35287873  0.53598879    -0.78200
O521        O  0.73931019  0.26091503  0.47999003    -0.78900
C522        C  0.76643295  0.36372244  0.54510866     0.96400
O523        O  0.74955083  0.35491612  0.47415465    -0.76800
O524        O  0.82008698  0.30814578  0.54310299    -0.82000
C525        C  0.82159766  0.27752365  0.47075624     0.99000
C526        C  0.81866312  0.28295010  0.55100241     1.04900
O527        O  0.80035000  0.26285008  0.47705692    -0.77600
C528        C  0.77283348  0.36050406  0.46291608     1.03200
C529        C  0.66339950  0.23370212  0.57504794    -0.01700
C530        C  0.64720170  0.25318465  0.59017053     0.06900
C531        C  0.65746406  0.28036172  0.59368580    -0.07700
C532        C  0.68211324  0.28893707  0.58056800     0.04300
C533        C  0.69752943  0.26991858  0.56409354    -0.14900
C534        C  0.68849093  0.24212132  0.56239892    -0.08200
C535        C  0.61935553  0.24612878  0.60224190     0.05300
C536        C  0.61724953  0.22440008  0.62175705    -0.09400
C537        C  0.59199059  0.21900542  0.63557070     0.00300
C538        C  0.56825867  0.23584552  0.63018977     0.00100
C539        C  0.57013813  0.25697227  0.61001160    -0.12900
C540        C  0.59523069  0.26203297  0.59587259     0.00600
C541        C  0.59172289  0.19740494  0.65657394     0.39900
C542        C  0.59569505  0.28381710  0.57503860     0.36500
C543        C  0.65393489  0.20546874  0.57070882     0.36200
C544        C  0.69080361  0.31755411  0.58404072     0.37000
N545        N  0.59179425  0.18003820  0.67335155    -0.43800
N546        N  0.59604808  0.30132000  0.55840064    -0.44200
N547        N  0.69755344  0.34052629  0.58692701    -0.41600
N548        N  0.64639329  0.18281549  0.56725732    -0.43000
H549        H  0.70003284  0.22742447  0.54967598     0.13100
H550        H  0.64568962  0.29519956  0.60607823     0.09600
H551        H  0.63569864  0.21228131  0.62702115     0.10700
H552        H  0.55201591  0.26991732  0.60562191     0.16500
C553        C  0.58905534  0.34198852  0.73243485    -0.01700
C554        C  0.58547780  0.35351476  0.75926370     0.06900
C555        C  0.56934385  0.33909919  0.77901108    -0.07700
C556        C  0.55540221  0.31434738  0.77177519     0.04300
C557        C  0.55770507  0.30366085  0.74428031    -0.14900
C558        C  0.57537242  0.31730775  0.72525740    -0.08200
C559        C  0.59729481  0.38133134  0.76609781     0.05300
C560        C  0.58755404  0.40467077  0.75124985    -0.09400
C561        C  0.60083456  0.43053969  0.75368373     0.00300
C562        C  0.62425863  0.43340302  0.77140297     0.00100
C563        C  0.63270584  0.41053621  0.78780765    -0.12900
C564        C  0.61947906  0.38458067  0.78521901     0.00600
C565        C  0.59001263  0.45383751  0.73787655     0.39900
C566        C  0.63001157  0.36123634  0.80112998     0.36500
C567        C  0.60605361  0.35561425  0.71158925     0.36200
C568        C  0.53724034  0.30175509  0.79227288     0.37000
N569        N  0.58135687  0.47260221  0.72533651    -0.43800
N570        N  0.63837965  0.34248498  0.81388068    -0.44200
N571        N  0.52267523  0.29177032  0.80876164    -0.41600
N572        N  0.61957443  0.36666018  0.69490117    -0.43000
H573        H  0.57755375  0.30930090  0.70418080     0.13100
H574        H  0.56662528  0.34788022  0.79970535     0.09600
H575        H  0.57007047  0.40238217  0.73696729     0.10700
H576        H  0.65062315  0.41253211  0.80158887     0.16500
C577        C  0.60026680  0.66386687  0.71741095    -0.01700
C578        C  0.59453919  0.65032090  0.74293062     0.06900
C579        C  0.57696921  0.66337898  0.76236230    -0.07700
C580        C  0.56336131  0.68847260  0.75591800     0.04300
C581        C  0.56707862  0.70084010  0.72925390    -0.14900
C582        C  0.58655578  0.68880198  0.71081519    -0.08200
C583        C  0.60627004  0.62234444  0.74944974     0.05300
C584        C  0.63535407  0.61913977  0.75070919    -0.09400
C585        C  0.64733744  0.59297015  0.75522210     0.00300
C586        C  0.63011029  0.56941440  0.75921947     0.00100
C587        C  0.60099019  0.57255177  0.75876714    -0.12900
C588        C  0.58894484  0.59881024  0.75372810     0.00600
C589        C  0.67748824  0.59093789  0.75620216     0.39900
C590        C  0.55886901  0.60088225  0.75180022     0.36500
C591        C  0.61897385  0.65192260  0.69696198     0.36200
C592        C  0.54463799  0.69993595  0.77661074     0.37000
N593        N  0.70163599  0.58960953  0.75725690    -0.43800
N594        N  0.53476616  0.60257251  0.75019841    -0.44200
N595        N  0.52975427  0.70906270  0.79333601    -0.41600
N596        N  0.63408861  0.64252120  0.68060149    -0.43000
H597        H  0.59013863  0.69818137  0.69051696     0.13100
H598        H  0.57324824  0.65345481  0.78237687     0.09600
H599        H  0.64875018  0.63714892  0.74784602     0.10700
H600        H  0.58774181  0.55442060  0.76147950     0.16500
C601        C  0.73337391  0.40505144  0.66984608    -0.01700
C602        C  0.75507924  0.41536189  0.65282978     0.06900
C603        C  0.77090716  0.43814957  0.66194897    -0.07700
C604        C  0.76406227  0.45208142  0.68667566     0.04300
C605        C  0.74086083  0.44308528  0.70269240    -0.14900
C606        C  0.72648709  0.41890298  0.69456195    -0.08200
C607        C  0.75960481  0.40444525  0.62429183     0.05300
C608        C  0.73801139  0.40740629  0.60465292    -0.09400
C609        C  0.74046145  0.39603052  0.57791102     0.00300
C610        C  0.76491675  0.38115198  0.57054110     0.00100
C611        C  0.78724987  0.37986654  0.58967090    -0.12900
C612        C  0.78478634  0.39140814  0.61637752     0.00600
C613        C  0.71758255  0.39997778  0.55855837     0.39900
C614        C  0.80782725  0.38846750  0.63568020     0.36500
C615        C  0.71717508  0.38095176  0.66181278     0.36200
C616        C  0.77958437  0.47699117  0.69345531     0.37000
N617        N  0.69921097  0.40317418  0.54311469    -0.43800
N618        N  0.82635044  0.38618948  0.65109873    -0.44200
N619        N  0.79212284  0.49692978  0.69871895    -0.41600
N620        N  0.70412628  0.36168977  0.65538006    -0.43000
H621        H  0.70884764  0.41165166  0.70680117     0.13100
H622        H  0.78760790  0.44608161  0.64885122     0.09600
H623        H  0.71898374  0.41832724  0.61043714     0.10700
H624        H  0.80616735  0.36854873  0.58433031     0.16500
C625        C  0.77347878  0.57912016  0.67117088    -0.01700
C626        C  0.75388677  0.59066516  0.65238458     0.06900
C627        C  0.72527284  0.58722237  0.65761481    -0.07700
C628        C  0.71593722  0.57166871  0.68043937     0.04300
C629        C  0.73548105  0.55895666  0.69873039    -0.14900
C630        C  0.76418513  0.56359263  0.69429576    -0.08200
C631        C  0.76222655  0.60605404  0.62673356     0.05300
C632        C  0.77514969  0.59164562  0.60463872    -0.09400
C633        C  0.77902627  0.60448183  0.57852633     0.00300
C634        C  0.76910263  0.63185812  0.57414124     0.00100
C635        C  0.75755437  0.64662630  0.59669757    -0.12900
C636        C  0.75443966  0.63414174  0.62287735     0.00600
C637        C  0.79186636  0.58875324  0.55626812     0.39900
C638        C  0.74324355  0.65054636  0.64556236     0.36500
C639        C  0.80310821  0.58298046  0.66702828     0.36200
C640        C  0.68608153  0.56932888  0.68453829     0.37000
N641        N  0.80227611  0.57623562  0.53841393    -0.43800
N642        N  0.73449464  0.66371676  0.66382671    -0.44200
N643        N  0.66212099  0.56767583  0.68755017    -0.41600
N644        N  0.82684114  0.58619563  0.66357617    -0.43000
H645        H  0.77939072  0.55417402  0.70822804     0.13100
H646        H  0.71010211  0.59636338  0.64341584     0.09600
H647        H  0.78127253  0.57005053  0.60750131     0.10700
H648        H  0.75077696  0.66804112  0.59379169     0.16500
C649        C  0.66730882  0.73829009  0.59129577    -0.01700
C650        C  0.65631625  0.76488578  0.58491716     0.06900
C651        C  0.67153109  0.78268822  0.56733541    -0.07700
C652        C  0.69611504  0.77332019  0.55420534     0.04300
C653        C  0.70534387  0.74557098  0.55831517    -0.14900
C654        C  0.69128279  0.72868432  0.57762986    -0.08200
C655        C  0.62772651  0.77278212  0.59435691     0.05300
C656        C  0.62402615  0.79381970  0.61437284    -0.09400
C657        C  0.59786202  0.79789294  0.62719905     0.00300
C658        C  0.57511466  0.78023014  0.62027758     0.00100
C659        C  0.57845687  0.76096250  0.59847141    -0.12900
C660        C  0.60425968  0.75746281  0.58525967     0.00600
C661        C  0.59556491  0.81908410  0.64850045     0.39900
C662        C  0.60641473  0.73736592  0.56289962     0.36500
C663        C  0.65373992  0.72016953  0.61120085     0.36200
C664        C  0.71026072  0.79181703  0.53509301     0.37000
N665        N  0.59381678  0.83624707  0.66540076    -0.43800
N666        N  0.60817750  0.72132839  0.54493751    -0.44200
N667        N  0.72172725  0.80666278  0.51988804    -0.41600
N668        N  0.64282136  0.70579299  0.62723485    -0.43000
H669        H  0.69851291  0.70754020  0.58131015     0.13100
H670        H  0.66344693  0.80333066  0.56275103     0.09600
H671        H  0.64187829  0.80611045  0.62096011     0.10700
H672        H  0.56101636  0.74788019  0.59230929     0.16500
C673        C  0.77752599  0.43104487  0.34105615    -0.01700
C674        C  0.76178657  0.40954010  0.35349572     0.06900
C675        C  0.73755346  0.39990754  0.34001770    -0.07700
C676        C  0.72752421  0.41300302  0.31587742     0.04300
C677        C  0.74175953  0.43633709  0.30498749    -0.14900
C678        C  0.76748521  0.44417700  0.31686471    -0.08200
C679        C  0.76747364  0.39957344  0.38230924     0.05300
C680        C  0.74784762  0.40615430  0.40300929    -0.09400
C681        C  0.75019588  0.39526572  0.42996867     0.00300
C682        C  0.77258473  0.37705787  0.43666942     0.00100
C683        C  0.79325491  0.37195084  0.41636315    -0.12900
C684        C  0.79081220  0.38296237  0.38930209     0.00600
C685        C  0.72910631  0.40302470  0.45014159     0.39900
C686        C  0.81171124  0.37582247  0.36878375     0.36500
C687        C  0.80281488  0.44138488  0.35385629     0.36200
C688        C  0.70224558  0.40260646  0.30303155     0.37000
N689        N  0.71215773  0.40923899  0.46623396    -0.43800
N690        N  0.82858466  0.37019256  0.35240919    -0.44200
N691        N  0.68210266  0.39421992  0.29258187    -0.41600
N692        N  0.82319649  0.44952614  0.36402715    -0.43000
H693        H  0.77862102  0.46206379  0.30862208     0.13100
H694        H  0.72568145  0.38298283  0.34921933     0.09600
H695        H  0.73019501  0.41946719  0.39784241     0.10700
H696        H  0.81057372  0.35809203  0.42111750     0.16500
C697        C  0.72349723  0.58540739  0.34806018    -0.01700
C698        C  0.75125072  0.58463632  0.35803025     0.06900
C699        C  0.77174329  0.57064411  0.34227109    -0.07700
C700        C  0.76453680  0.55605731  0.31783880     0.04300
C701        C  0.73632136  0.55523511  0.30904296    -0.14900
C702        C  0.71632415  0.57083762  0.32385876    -0.08200
C703        C  0.75870757  0.59748916  0.38535103     0.05300
C704        C  0.74543553  0.58791076  0.40970694    -0.09400
C705        C  0.74952007  0.60126968  0.43542098     0.00300
C706        C  0.76793605  0.62419252  0.43727659     0.00100
C707        C  0.78224488  0.63286814  0.41312252    -0.12900
C708        C  0.77745750  0.62004102  0.38725306     0.00600
C709        C  0.73444202  0.59114763  0.45947288     0.39900
C710        C  0.79037820  0.63164374  0.36262819     0.36500
C711        C  0.70183931  0.60057098  0.36263677     0.36200
C712        C  0.78603724  0.54059507  0.30338845     0.37000
N713        N  0.72224811  0.58309579  0.47871093    -0.43800
N714        N  0.80047746  0.64099572  0.34278036    -0.44200
N715        N  0.80324601  0.52823806  0.29171985    -0.41600
N716        N  0.68449830  0.61265860  0.37438546    -0.43000
H717        H  0.69463135  0.57068098  0.31712573     0.13100
H718        H  0.79319134  0.57020139  0.34968296     0.09600
H719        H  0.73114346  0.57040689  0.40841615     0.10700
H720        H  0.79604913  0.65077535  0.41412522     0.16500
C721        C  0.60224879  0.74114557  0.41759461    -0.01700
C722        C  0.62364893  0.76071727  0.41256084     0.06900
C723        C  0.61759690  0.78495737  0.39737011    -0.07700
C724        C  0.59106557  0.78907803  0.38565070     0.04300
C725        C  0.57014251  0.76847060  0.38905932    -0.14900
C726        C  0.57583757  0.74512630  0.40582425    -0.08200
C727        C  0.65273714  0.75513836  0.42160432     0.05300
C728        C  0.66628579  0.73127570  0.41131482    -0.09400
C729        C  0.69181800  0.72251196  0.42254083     0.00300
C730        C  0.70433281  0.73808319  0.44419842     0.00100
C731        C  0.69212708  0.76348267  0.45240053    -0.12900
C732        C  0.66638365  0.77201616  0.44143227     0.00600
C733        C  0.70425627  0.69709567  0.41209170     0.39900
C734        C  0.65348655  0.79695900  0.45239538     0.36500
C735        C  0.60708897  0.71645134  0.43421724     0.36200
C736        C  0.58680872  0.81354497  0.36856095     0.37000
N737        N  0.71417145  0.67673213  0.40367655    -0.43800
N738        N  0.64324051  0.81698819  0.46119662    -0.44200
N739        N  0.58363892  0.83324262  0.35494402    -0.41600
N740        N  0.61099649  0.69662633  0.44745267    -0.43000
H741        H  0.55987170  0.72936861  0.40890351     0.13100
H742        H  0.63402402  0.80007561  0.39359959     0.09600
H743        H  0.65618316  0.71875010  0.39537368     0.10700
H744        H  0.70151376  0.77557715  0.46908264     0.16500
C745        C  0.59654957  0.65979953  0.29252965    -0.01700
C746        C  0.59253886  0.64680484  0.26639107     0.06900
C747        C  0.57567798  0.65995691  0.24629414    -0.07700
C748        C  0.56134031  0.68467353  0.25251128     0.04300
C749        C  0.56368061  0.69653799  0.27942461    -0.14900
C750        C  0.58208111  0.68437324  0.29883937    -0.08200
C751        C  0.60351324  0.61837274  0.26060394     0.05300
C752        C  0.59532689  0.59629167  0.27807067    -0.09400
C753        C  0.60542553  0.56921350  0.27378407     0.00300
C754        C  0.62372780  0.56379092  0.25135793     0.00100
C755        C  0.63085907  0.58560872  0.23311844    -0.12900
C756        C  0.62113004  0.61277027  0.23767134     0.00600
C757        C  0.59634544  0.54730527  0.29234481     0.39900
C758        C  0.63067199  0.63472585  0.21939177     0.36500
C759        C  0.61477910  0.64792240  0.31349435     0.36200
C760        C  0.54236105  0.69577712  0.23180903     0.37000
N761        N  0.58893384  0.52975170  0.30716676    -0.43800
N762        N  0.63837835  0.65228848  0.20473241    -0.44200
N763        N  0.52711385  0.70458744  0.21520424    -0.41600
N764        N  0.62933634  0.63843856  0.33034569    -0.43000
H765        H  0.58419062  0.69343445  0.31949367     0.13100
H766        H  0.57243723  0.65002803  0.22620273     0.09600
H767        H  0.58110171  0.60029732  0.29524780     0.10700
H768        H  0.64528568  0.58173014  0.21606831     0.16500
C769        C  0.43125124  0.33476148  0.77904109    -0.01700
C770        C  0.41472473  0.35022885  0.76015459     0.06900
C771        C  0.40930789  0.33940430  0.73352439    -0.07700
C772        C  0.42175290  0.31454771  0.72473819     0.04300
C773        C  0.44003033  0.29999982  0.74289861    -0.14900
C774        C  0.44350549  0.30964517  0.77039884    -0.08200
C775        C  0.40473905  0.37878170  0.76651533     0.05300
C776        C  0.41533528  0.40101172  0.75067915    -0.09400
C777        C  0.40448630  0.42796095  0.75358954     0.00300
C778        C  0.38271239  0.43299261  0.77285147     0.00100
C779        C  0.37324214  0.41098644  0.78978147    -0.12900
C780        C  0.38380812  0.38395827  0.78652616     0.00600
C781        C  0.41593702  0.44995588  0.73647755     0.39900
C782        C  0.37153922  0.36161404  0.80254851     0.36500
C783        C  0.43774606  0.34532890  0.80651088     0.36200
C784        C  0.41642394  0.30515739  0.69654404     0.37000
N785        N  0.42518281  0.46753880  0.72275993    -0.43800
N786        N  0.36167587  0.34369872  0.81536586    -0.44200
N787        N  0.41231720  0.29773495  0.67391410    -0.41600
N788        N  0.44291438  0.35382662  0.82853004    -0.43000
H789        H  0.45771588  0.29886458  0.78441996     0.13100
H790        H  0.39622640  0.35108853  0.71912881     0.09600
H791        H  0.43166812  0.39709370  0.73544951     0.10700
H792        H  0.35623113  0.41450282  0.80435430     0.16500
C793        C  0.42009026  0.59643764  0.76408758    -0.01700
C794        C  0.40761209  0.61857942  0.74900351     0.06900
C795        C  0.38032024  0.61533335  0.73888012    -0.07700
C796        C  0.36558207  0.59055978  0.74298994     0.04300
C797        C  0.37790765  0.56828000  0.75797447    -0.14900
C798        C  0.40498727  0.57172631  0.76890945    -0.08200
C799        C  0.42297754  0.64447114  0.74128048     0.05300
C800        C  0.42634111  0.65051824  0.71283439    -0.09400
C801        C  0.44005789  0.67469310  0.70403734     0.00300
C802        C  0.45140565  0.69335743  0.72397840     0.00100
C803        C  0.44696651  0.68790297  0.75250719    -0.12900
C804        C  0.43272948  0.66382087  0.76124241     0.00600
C805        C  0.44150343  0.68000558  0.67435905     0.39900
C806        C  0.42788344  0.65971818  0.79069276     0.36500
C807        C  0.44878433  0.59797015  0.77338439     0.36200
C808        C  0.33759405  0.58884528  0.73182821     0.37000
N809        N  0.44250446  0.68421744  0.65058155    -0.43800
N810        N  0.42396607  0.65646695  0.81431076    -0.44200
N811        N  0.31523962  0.58766047  0.72266255    -0.41600
N812        N  0.47181859  0.59918086  0.78075026    -0.43000
H813        H  0.41473270  0.55472821  0.78028999     0.13100
H814        H  0.37060507  0.63220312  0.72725318     0.09600
H815        H  0.41814152  0.63617826  0.69734150     0.10700
H816        H  0.45523939  0.70209147  0.76807932     0.16500
C817        C  0.25501334  0.54477791  0.64646873    -0.01700
C818        C  0.24659210  0.57288833  0.64749119     0.06900
C819        C  0.24359404  0.58604408  0.67356965    -0.07700
C820        C  0.25100381  0.57211824  0.69835705     0.04300
C821        C  0.26218561  0.54491521  0.69690738    -0.14900
C822        C  0.26290866  0.53119350  0.67096479    -0.08200
C823        C  0.24309800  0.58923994  0.62142741     0.05300
C824        C  0.21657264  0.59922357  0.61386566    -0.09400
C825        C  0.21273395  0.61459936  0.58919262     0.00300
C826        C  0.23594204  0.62039971  0.57172956     0.00100
C827        C  0.26234523  0.60977818  0.57930483    -0.12900
C828        C  0.26611936  0.59457465  0.60384914     0.00600
C829        C  0.18496330  0.62472555  0.58297235     0.39900
C830        C  0.29405485  0.58531002  0.61086126     0.36500
C831        C  0.25647150  0.52969603  0.62038816     0.36200
C832        C  0.24839172  0.58660356  0.72462806     0.37000
N833        N  0.16261893  0.63268393  0.57806347    -0.43800
N834        N  0.31644607  0.57784225  0.61630082    -0.44200
N835        N  0.24624221  0.59813479  0.74574367    -0.41600
N836        N  0.25769133  0.51767728  0.59947360    -0.43000
H837        H  0.27043997  0.50986209  0.66971077     0.13100
H838        H  0.23657088  0.60754154  0.67444111     0.09600
H839        H  0.19883676  0.59499887  0.62732052     0.10700
H840        H  0.28042910  0.61382665  0.56625891     0.16500
C841        C  0.40841677  0.74243627  0.42431987    -0.01700
C842        C  0.38412994  0.75692559  0.41583425     0.06900
C843        C  0.38593287  0.77697736  0.39469872    -0.07700
C844        C  0.41118404  0.78168511  0.38080372     0.04300
C845        C  0.43535446  0.76644514  0.38848949    -0.14900
C846        C  0.43375226  0.74723311  0.41056478    -0.08200
C847        C  0.35625626  0.75004685  0.42723111     0.05300
C848        C  0.34193053  0.76984473  0.44332132    -0.09400
C849        C  0.31634069  0.76326519  0.45595084     0.00300
C850        C  0.30481945  0.73626685  0.45247722     0.00100
C851        C  0.31825714  0.71745267  0.43433882    -0.12900
C852        C  0.34372365  0.72406249  0.42184646     0.00600
C853        C  0.30334565  0.78419079  0.47332601     0.39900
C854        C  0.35684480  0.70357528  0.40402292     0.36500
C855        C  0.40765645  0.72209862  0.44657366     0.36200
C856        C  0.41090125  0.80026799  0.35708045     0.37000
N857        N  0.29294395  0.80108043  0.48712376    -0.43800
N858        N  0.36730418  0.68701967  0.38987962    -0.44200
N859        N  0.41035754  0.81501242  0.33795913    -0.41600
N860        N  0.40703110  0.70570872  0.46430705    -0.43000
H861        H  0.45217525  0.73540873  0.41656617     0.13100
H862        H  0.36718604  0.78793334  0.38806544     0.09600
H863        H  0.35125725  0.79016104  0.44677616     0.10700
H864        H  0.30947081  0.69691103  0.43080232     0.16500
C865        C  0.34016975  0.76965922  0.57266507    -0.01700
C866        C  0.35562990  0.75100969  0.58963970     0.06900
C867        C  0.34334277  0.72551930  0.59733243    -0.07700
C868        C  0.31782403  0.71707811  0.58580270     0.04300
C869        C  0.30363384  0.73473005  0.56697947    -0.14900
C870        C  0.31426998  0.76145237  0.56171540    -0.08200
C871        C  0.38494604  0.75691638  0.59861476     0.05300
C872        C  0.39101800  0.78184317  0.61267373    -0.09400
C873        C  0.41799598  0.78741350  0.62262277     0.00300
C874        C  0.43944434  0.76721100  0.61956704     0.00100
C875        C  0.43360542  0.74275402  0.60456024    -0.12900
C876        C  0.40685721  0.73760653  0.59387105     0.00600
C877        C  0.42239448  0.81346112  0.63706171     0.39900
C878        C  0.40248144  0.71216438  0.57833498     0.36500
C879        C  0.35110387  0.79650355  0.56453486     0.36200
C880        C  0.30697688  0.68990770  0.59293780     0.37000
N881        N  0.42564289  0.83455690  0.64831400    -0.43800
N882        N  0.39897588  0.69169268  0.56604159    -0.44200
N883        N  0.29827310  0.66815644  0.59870266    -0.41600
N884        N  0.35969889  0.81813294  0.55817007    -0.43000
H885        H  0.30345851  0.77508591  0.54717407     0.13100
H886        H  0.35435779  0.71159359  0.61142142     0.09600
H887        H  0.37440233  0.79675121  0.61663057     0.10700
H888        H  0.44987821  0.72720549  0.60174653     0.16500
C889        C  0.22015587  0.38597475  0.62072907    -0.01700
C890        C  0.24566903  0.39797180  0.62927864     0.06900
C891        C  0.26813980  0.39877757  0.61053750    -0.07700
C892        C  0.26593617  0.38721286  0.58385814     0.04300
C893        C  0.24052197  0.37475054  0.57522793    -0.14900
C894        C  0.21768294  0.37481553  0.59377989    -0.08200
C895        C  0.25011889  0.40967146  0.65762113     0.05300
C896        C  0.27111862  0.39793551  0.67451504    -0.09400
C897        C  0.28024570  0.41145665  0.69878090     0.00300
C898        C  0.26786904  0.43695457  0.70673581     0.00100
C899        C  0.24538832  0.44754175  0.69096126    -0.12900
C900        C  0.23676254  0.43441246  0.66632110     0.00600
C901        C  0.30285709  0.39923486  0.71466060     0.39900
C902        C  0.21610318  0.44812218  0.64905286     0.36500
C903        C  0.19679904  0.38347530  0.63964358     0.36200
C904        C  0.29028829  0.38831120  0.56606124     0.37000
N905        N  0.32100617  0.38946384  0.72736915    -0.43800
N906        N  0.19963207  0.45917334  0.63517433    -0.44200
N907        N  0.30995481  0.38910398  0.55201094    -0.41600
N908        N  0.17802343  0.38131746  0.65472189    -0.43000
H909        H  0.19824580  0.36484985  0.58777103     0.13100
H910        H  0.28771871  0.40822850  0.61699144     0.09600
H911        H  0.28140093  0.37886562  0.66790383     0.10700
H912        H  0.23605688  0.46739900  0.69660317     0.16500
C913        C  0.34407866  0.27695358  0.59265393    -0.01700
C914        C  0.35224425  0.24879061  0.59453623     0.06900
C915        C  0.33441016  0.22810362  0.58388357    -0.07700
C916        C  0.30976440  0.23535628  0.56945656     0.04300
C917        C  0.30297974  0.26380915  0.56535021    -0.14900
C918        C  0.31979497  0.28418677  0.57812804    -0.08200
C919        C  0.37986965  0.24107963  0.60660632     0.05300
C920        C  0.38104419  0.22941958  0.63339532    -0.09400
C921        C  0.40679898  0.22539310  0.64686115     0.00300
C922        C  0.43197550  0.23273774  0.63329276     0.00100
C923        C  0.43085252  0.24372690  0.60618628    -0.12900
C924        C  0.40506618  0.24773696  0.59271575     0.00600
C925        C  0.40669821  0.21599150  0.67550020     0.39900
C926        C  0.40480190  0.25925155  0.56484867     0.36500
C927        C  0.36068688  0.29891830  0.60489452     0.36200
C928        C  0.29277564  0.21331080  0.55797019     0.37000
N929        N  0.40643983  0.20885466  0.69857541    -0.43800
N930        N  0.40442271  0.26847356  0.54251651    -0.44200
N931        N  0.27911510  0.19552171  0.54902382    -0.41600
N932        N  0.37392329  0.31657602  0.61468662    -0.43000
H933        H  0.31448747  0.30608601  0.57588071     0.13100
H934        H  0.34030356  0.20634698  0.58591364     0.09600
H935        H  0.36174709  0.22470634  0.64430393     0.10700
H936        H  0.45007547  0.24971098  0.59579278     0.16500
C937        C  0.38599301  0.61523601  0.23291811    -0.01700
C938        C  0.40542551  0.61955757  0.25463390     0.06900
C939        C  0.41261293  0.59725045  0.27225893    -0.07700
C940        C  0.39992419  0.57117186  0.26925692     0.04300
C941        C  0.37973007  0.56711310  0.24816844    -0.14900
C942        C  0.37351593  0.58906157  0.22972690    -0.08200
C943        C  0.41725641  0.64740878  0.26086339     0.05300
C944        C  0.41092890  0.65959566  0.28671744    -0.09400
C945        C  0.42445810  0.68386161  0.29550716     0.00300
C946        C  0.44489287  0.69629600  0.27824915     0.00100
C947        C  0.44963476  0.68526480  0.25147395    -0.12900
C948        C  0.43615772  0.66086873  0.24274871     0.00600
C949        C  0.41733548  0.69530489  0.32249089     0.39900
C950        C  0.44347090  0.64911955  0.21597642     0.36500
C951        C  0.37730734  0.63765729  0.21473193     0.36200
C952        C  0.40803687  0.54893822  0.28795494     0.37000
N953        N  0.41170295  0.70457102  0.34407829    -0.43800
N954        N  0.44926460  0.63982402  0.19444444    -0.44200
N955        N  0.41458465  0.53110032  0.30289069    -0.41600
N956        N  0.37036510  0.65557878  0.20008020    -0.43000
H957        H  0.35769203  0.58622248  0.21375316     0.13100
H958        H  0.42778950  0.60044463  0.28880794     0.09600
H959        H  0.39597819  0.64956226  0.30046058     0.10700
H960        H  0.46534778  0.69456354  0.23807624     0.16500
C961        C  0.26951882  0.59674586  0.34217705    -0.01700
C962        C  0.24565810  0.58879402  0.35751882     0.06900
C963        C  0.22860815  0.56733541  0.34731378    -0.07700
C964        C  0.23629635  0.55232264  0.32336100     0.04300
C965        C  0.26179590  0.55842481  0.30969769    -0.14900
C966        C  0.27769568  0.58123618  0.31881034    -0.08200
C967        C  0.24001105  0.60076830  0.38556152     0.05300
C968        C  0.21764454  0.61929361  0.38931973    -0.09400
C969        C  0.21337560  0.63260076  0.41509855     0.00300
C970        C  0.23183142  0.62733608  0.43776026     0.00100
C971        C  0.25347863  0.60777912  0.43406611    -0.12900
C972        C  0.25751608  0.59440982  0.40841478     0.00600
C973        C  0.19085063  0.65261873  0.41702657     0.39900
C974        C  0.27979444  0.57416288  0.40594438     0.36500
C975        C  0.28617687  0.62043310  0.35043151     0.36200
C976        C  0.21860668  0.52963879  0.31444923     0.37000
N977        N  0.17275560  0.66862373  0.41845967    -0.43800
N978        N  0.29753466  0.55784224  0.40387456    -0.44200
N979        N  0.20411029  0.51170879  0.30729862    -0.41600
N980        N  0.29934020  0.63959923  0.35691242    -0.43000
H981        H  0.29703610  0.58637961  0.30816246     0.13100
H982        H  0.20999038  0.56145911  0.35881868     0.09600
H983        H  0.20402215  0.62401886  0.37180591     0.10700
H984        H  0.26758796  0.60312873  0.45121012     0.16500
C985        C  0.22837826  0.43213214  0.34466168    -0.01700
C986        C  0.24665467  0.41397548  0.35910100     0.06900
C987        C  0.27225194  0.40669421  0.34668124    -0.07700
C988        C  0.28115978  0.41952885  0.32202548     0.04300
C989        C  0.26405073  0.43976595  0.30901441    -0.14900
C990        C  0.23708987  0.44457831  0.31962054    -0.08200
C991        C  0.24053300  0.40338735  0.38771615     0.05300
C992        C  0.21656484  0.38725257  0.39252384    -0.09400
C993        C  0.21193660  0.37459328  0.41853079     0.00300
C994        C  0.23212021  0.37727118  0.44010900     0.00100
C995        C  0.25519688  0.39481858  0.43568177    -0.12900
C996        C  0.25930742  0.40810315  0.41001990     0.00600
C997        C  0.18694782  0.35802622  0.42182313     0.39900
C998        C  0.28301606  0.42651413  0.40709202     0.36500
C999        C  0.20158697  0.44000831  0.35611979     0.36200
C1000       C  0.30830280  0.41220012  0.31094414     0.37000
N1001       N  0.16677171  0.34497649  0.42443599    -0.43800
N1002       N  0.30195750  0.44132562  0.40475873    -0.44200
N1003       N  0.33003759  0.40629731  0.30207774    -0.41600
N1004       N  0.18007983  0.44629827  0.36525883    -0.43000
H1005       H  0.22366294  0.45979498  0.30958963     0.13100
H1006       H  0.28593248  0.39185542  0.35704125     0.09600
H1007       H  0.20185792  0.38377561  0.37562034     0.10700
H1008       H  0.27045461  0.39778619  0.45220024     0.16500
C1009       C  0.60011499  0.25925397  0.41599729    -0.01700
C1010       C  0.62304480  0.24191587  0.40944359     0.06900
C1011       C  0.61887261  0.21858535  0.39233028    -0.07700
C1012       C  0.59259786  0.21329109  0.38037101     0.04300
C1013       C  0.56991281  0.23154351  0.38577176    -0.14900
C1014       C  0.57394458  0.25403684  0.40410317    -0.08200
C1015       C  0.65146597  0.24818358  0.42018727     0.05300
C1016       C  0.66313720  0.23086753  0.44066660    -0.09400
C1017       C  0.68774411  0.23851156  0.45460748     0.00300
C1018       C  0.70098122  0.26414184  0.44813541     0.00100
C1019       C  0.69034784  0.28028686  0.42600031    -0.12900
C1020       C  0.66597524  0.27236420  0.41186396     0.00600
C1021       C  0.69748363  0.22065135  0.47687872     0.39900
C1022       C  0.65579726  0.28966034  0.38932409     0.36500
C1023       C  0.60299783  0.28272370  0.43466924     0.36200
C1024       C  0.59020386  0.19022122  0.36116275     0.37000
N1025       N  0.70524679  0.20620121  0.49463735    -0.43800
N1026       N  0.64761738  0.30339609  0.37118533    -0.44200
N1027       N  0.58856904  0.17169541  0.34577628    -0.41600
N1028       N  0.60527461  0.30155615  0.44959477    -0.43000
H1029       H  0.55670350  0.26808039  0.40858597     0.13100
H1030       H  0.63644118  0.20507831  0.38750670     0.09600
H1031       H  0.65218333  0.21204543  0.44679147     0.10700
H1032       H  0.70049452  0.29972208  0.42043898     0.16500
C1033       C  0.38431043  0.21912327  0.39021176    -0.01700
C1034       C  0.37844402  0.24142090  0.40846098     0.06900
C1035       C  0.40036487  0.25880350  0.41727210    -0.07700
C1036       C  0.42745513  0.25542309  0.40681953     0.04300
C1037       C  0.43314024  0.23381832  0.38766125    -0.14900
C1038       C  0.41156041  0.21537425  0.38018220    -0.08200
C1039       C  0.34970591  0.24759507  0.41846970     0.05300
C1040       C  0.33578161  0.22810655  0.43526932    -0.09400
C1041       C  0.31100601  0.23526549  0.44922844     0.00300
C1042       C  0.29995675  0.26259791  0.44658647     0.00100
C1043       C  0.31259931  0.28101569  0.42756346    -0.12900
C1044       C  0.33722717  0.27382158  0.41366619     0.00600
C1045       C  0.29876349  0.21472376  0.46752261     0.39900
C1046       C  0.34986566  0.29422183  0.39544670     0.36500
C1047       C  0.36249440  0.20098172  0.38003189     0.36200
C1048       C  0.44889499  0.27462325  0.41578864     0.37000
N1049       N  0.28902160  0.19808466  0.48204623    -0.43800
N1050       N  0.35987975  0.31076862  0.38100806    -0.44200
N1051       N  0.46605159  0.29006865  0.42290860    -0.41600
N1052       N  0.34509482  0.18641873  0.37172627    -0.43000
H1053       H  0.41555552  0.19907712  0.36502666     0.13100
H1054       H  0.39608178  0.27558297  0.43184193     0.09600
H1055       H  0.34514680  0.20778124  0.43876443     0.10700
H1056       H  0.30407881  0.30179833  0.42464920     0.16500
C1057       C  0.59436910  0.39705334  0.27293696    -0.01700
C1058       C  0.60053640  0.37452347  0.25504802     0.06900
C1059       C  0.61723481  0.37892428  0.23147185    -0.07700
C1060       C  0.62904558  0.40508529  0.22626345     0.04300
C1061       C  0.62404336  0.42739339  0.24496315    -0.14900
C1062       C  0.60630236  0.42312336  0.26791350    -0.08200
C1063       C  0.58911002  0.34641131  0.26033980     0.05300
C1064       C  0.56882837  0.33589860  0.24206783    -0.09400
C1065       C  0.55416164  0.31157449  0.24861135     0.00300
C1066       C  0.55984317  0.29749294  0.27392281     0.00100
C1067       C  0.58174712  0.30685508  0.29104803    -0.12900
C1068       C  0.59658349  0.33100930  0.28430769     0.00600
C1069       C  0.53172061  0.30314855  0.23027923     0.39900
C1070       C  0.61872328  0.34010109  0.30270403     0.36500
C1071       C  0.57575639  0.39395549  0.29647970     0.36200
C1072       C  0.64750852  0.40776764  0.20258706     0.37000
N1073       N  0.51383379  0.29652277  0.21541100    -0.43800
N1074       N  0.63647271  0.34734349  0.31745236    -0.44200
N1075       N  0.66222479  0.40959221  0.18351172    -0.41600
N1076       N  0.56083158  0.39149839  0.31532890    -0.43000
H1077       H  0.60214481  0.44012157  0.28227570     0.13100
H1078       H  0.62162733  0.36164990  0.21751586     0.09600
H1079       H  0.56333075  0.34761426  0.22345988     0.10700
H1080       H  0.58635131  0.29601035  0.31041254     0.16500
C1081       C  0.41104738  0.40381453  0.27466138    -0.01700
C1082       C  0.40624054  0.38138117  0.25617978     0.06900
C1083       C  0.38926794  0.38552600  0.23268896    -0.07700
C1084       C  0.37618893  0.41118891  0.22795115     0.04300
C1085       C  0.37965673  0.43320078  0.24735544    -0.14900
C1086       C  0.39754669  0.42932588  0.27028665    -0.08200
C1087       C  0.41735093  0.35308771  0.26199998     0.05300
C1088       C  0.41004843  0.34011171  0.28722561    -0.09400
C1089       C  0.42221219  0.31477182  0.29500055     0.00300
C1090       C  0.44186380  0.30188905  0.27720732     0.00100
C1091       C  0.44706609  0.31348492  0.25082494    -0.12900
C1092       C  0.43517845  0.33905381  0.24316895     0.00600
C1093       C  0.41466362  0.30257887  0.32152526     0.39900
C1094       C  0.44308142  0.35126126  0.21677019     0.36500
C1095       C  0.42969223  0.40116085  0.29827827     0.36200
C1096       C  0.35799848  0.41351486  0.20395932     0.37000
N1097       N  0.40877002  0.29257824  0.34270400    -0.43800
N1098       N  0.44939646  0.36096301  0.19556926    -0.44200
N1099       N  0.34358536  0.41506313  0.18458787    -0.41600
N1100       N  0.44464847  0.39909492  0.31719074    -0.43000
H1101       H  0.40064571  0.44616435  0.28508938     0.13100
H1102       H  0.38543788  0.36831445  0.21850097     0.09600
H1103       H  0.39545151  0.35028236  0.30127092     0.10700
H1104       H  0.46203701  0.30362934  0.23700383     0.16500
C1105       C  0.64951981  0.90214804  0.74627692    -0.01700
C1106       C  0.62240633  0.90234821  0.75773492     0.06900
C1107       C  0.61463689  0.92377264  0.77591310    -0.07700
C1108       C  0.63342463  0.94490426  0.78303865     0.04300
C1109       C  0.66097838  0.94484953  0.77179809    -0.14900
C1110       C  0.66851458  0.92329911  0.75328175    -0.08200
C1111       C  0.60107808  0.88146580  0.74970433     0.05300
C1112       C  0.60229177  0.85442061  0.76083439    -0.09400
C1113       C  0.58225113  0.83431028  0.75349449     0.00300
C1114       C  0.56061924  0.84126715  0.73447496     0.00100
C1115       C  0.55933594  0.86870391  0.72399125    -0.12900
C1116       C  0.57922111  0.88863748  0.73138664     0.00600
C1117       C  0.58499344  0.80668156  0.76515676     0.39900
C1118       C  0.57715362  0.91621329  0.71938950     0.36500
C1119       C  0.65805613  0.88064642  0.72698426     0.36200
C1120       C  0.62334997  0.96636965  0.80168185     0.37000
N1121       N  0.58719641  0.78455631  0.77457610    -0.43800
N1122       N  0.57552692  0.93829975  0.70977693    -0.44200
N1123       N  0.61517136  0.98343314  0.81670206    -0.41600
N1124       N  0.66477449  0.86335762  0.71151944    -0.43000
H1125       H  0.68941938  0.92267319  0.74453256     0.13100
H1126       H  0.59359617  0.92406095  0.78441755     0.09600
H1127       H  0.61902302  0.84901727  0.77517910     0.10700
H1128       H  0.54280865  0.87468814  0.70964154     0.16500
C1129       C  0.59033751  0.12058681  0.73624354    -0.01700
C1130       C  0.61220332  0.13057374  0.75319520     0.06900
C1131       C  0.61128667  0.15811209  0.76301452    -0.07700
C1132       C  0.58897903  0.17583342  0.75590504     0.04300
C1133       C  0.56729220  0.16601392  0.73835402    -0.14900
C1134       C  0.56838997  0.13835411  0.72867415    -0.08200
C1135       C  0.63490735  0.11163909  0.76247473     0.05300
C1136       C  0.65616748  0.10400717  0.74374754    -0.09400
C1137       C  0.67586251  0.08338047  0.75083321     0.00300
C1138       C  0.67393280  0.06960434  0.77691434     0.00100
C1139       C  0.65324284  0.07843989  0.79595328    -0.12900
C1140       C  0.63399509  0.09921528  0.78901713     0.00600
C1141       C  0.69796295  0.07730165  0.73122995     0.39900
C1142       C  0.61271383  0.10660910  0.80909749     0.36500
C1143       C  0.58939691  0.09178085  0.72748695     0.36200
C1144       C  0.58921811  0.20405324  0.76639183     0.37000
N1145       N  0.71579888  0.07268118  0.71556369    -0.43800
N1146       N  0.59572790  0.11254170  0.82524698    -0.44200
N1147       N  0.58936749  0.22664957  0.77486825    -0.41600
N1148       N  0.58862918  0.06861002  0.72079722    -0.43000
H1149       H  0.55167802  0.13035977  0.71560473     0.13100
H1150       H  0.62790815  0.16564613  0.77646356     0.09600
H1151       H  0.65706373  0.11389299  0.72339399     0.10700
H1152       H  0.65136322  0.06849078  0.81620164     0.16500
C1153       C  0.71668194  0.41769240  0.12042430    -0.01700
C1154       C  0.73658415  0.39660747  0.12556050     0.06900
C1155       C  0.75022212  0.39573483  0.15154634    -0.07700
C1156       C  0.74439450  0.41560390  0.17228052     0.04300
C1157       C  0.72487252  0.43716592  0.16691245    -0.14900
C1158       C  0.71114639  0.43769555  0.14087303    -0.08200
C1159       C  0.74405477  0.37604153  0.10358761     0.05300
C1160       C  0.75522136  0.38589017  0.07839240    -0.09400
C1161       C  0.76246113  0.36751372  0.05696321     0.00300
C1162       C  0.75911738  0.33846797  0.06075526     0.00100
C1163       C  0.74724404  0.32861133  0.08568378    -0.12900
C1164       C  0.73979119  0.34713576  0.10709143     0.00600
C1165       C  0.77245876  0.37909254  0.03095200     0.39900
C1166       C  0.72751520  0.33610372  0.13229277     0.36500
C1167       C  0.70123726  0.41891281  0.09448871     0.36200
C1168       C  0.75787177  0.41261417  0.19910397     0.37000
N1169       N  0.78034927  0.38822604  0.01002393    -0.43800
N1170       N  0.71766996  0.32733214  0.15252980    -0.44200
N1171       N  0.76856171  0.41007587  0.22065442    -0.41600
N1172       N  0.68891511  0.41982012  0.07368985    -0.43000
H1173       H  0.69592068  0.45387936  0.13635082     0.13100
H1174       H  0.76549936  0.37947630  0.15561100     0.09600
H1175       H  0.75824250  0.40811641  0.07545420     0.10700
H1176       H  0.74451322  0.30637366  0.08876343     0.16500
C1177       C  0.77932499  0.36307411  0.89769552    -0.01700
C1178       C  0.75212078  0.37457797  0.89656811     0.06900
C1179       C  0.73175772  0.36444637  0.91513625    -0.07700
C1180       C  0.73844462  0.34458606  0.93563827     0.04300
C1181       C  0.76591791  0.33362147  0.93729290    -0.14900
C1182       C  0.78586337  0.34276430  0.91771989    -0.08200
C1183       C  0.74487732  0.39797243  0.87714384     0.05300
C1184       C  0.74924434  0.39485368  0.84826996    -0.09400
C1185       C  0.74306082  0.41654912  0.82954097     0.00300
C1186       C  0.73189916  0.44195308  0.83958344     0.00100
C1187       C  0.72724144  0.44494534  0.86836560    -0.12900
C1188       C  0.73374418  0.42344622  0.88709832     0.00600
C1189       C  0.74702547  0.41165855  0.80004736     0.39900
C1190       C  0.72917781  0.42833897  0.91649981     0.36500
C1191       C  0.80139329  0.37271413  0.87954204     0.36200
C1192       C  0.71721366  0.33757102  0.95586469     0.37000
N1193       N  0.75011676  0.40774052  0.77640299    -0.43800
N1194       N  0.72532920  0.43225003  0.94003024    -0.44200
N1195       N  0.70021616  0.33218639  0.97218242    -0.41600
N1196       N  0.81911266  0.38034019  0.86498556    -0.43000
H1197       H  0.80703862  0.33461484  0.91856163     0.13100
H1198       H  0.71068626  0.37284010  0.91423353     0.09600
H1199       H  0.75722500  0.37523811  0.84027807     0.10700
H1200       H  0.71863023  0.46432039  0.87632113     0.16500
C1201       C  0.72604070  0.10988841  0.89051213    -0.01700
C1202       C  0.75007382  0.11643442  0.90634016     0.06900
C1203       C  0.77076206  0.09590426  0.91017280    -0.07700
C1204       C  0.76861647  0.06980580  0.89728780     0.04300
C1205       C  0.74512210  0.06367164  0.88057075    -0.14900
C1206       C  0.72371499  0.08363507  0.87793220    -0.08200
C1207       C  0.75441014  0.14446140  0.91899081     0.05300
C1208       C  0.73499250  0.15475027  0.93844219    -0.09400
C1209       C  0.74010935  0.17958211  0.95301532     0.00300
C1210       C  0.76529368  0.19423871  0.94856705     0.00100
C1211       C  0.78413523  0.18458782  0.92831638    -0.12900
C1212       C  0.77870686  0.16018178  0.91325717     0.00600
C1213       C  0.72011885  0.18849291  0.97375892     0.39900
C1214       C  0.79851190  0.15152212  0.89219698     0.36500
C1215       C  0.70407624  0.13006668  0.88582665     0.36200
C1216       C  0.79052710  0.04955605  0.90193006     0.37000
N1217       N  0.70393004  0.19557891  0.99025199    -0.43800
N1218       N  0.81430500  0.14451380  0.87528630    -0.44200
N1219       N  0.80804391  0.03329208  0.90570953    -0.41600
N1220       N  0.68637055  0.14613540  0.88208683    -0.43000
H1221       H  0.70562157  0.07915293  0.86498925     0.13100
H1222       H  0.78888722  0.10046177  0.92302723     0.09600
H1223       H  0.71633544  0.14278994  0.94307132     0.10700
H1224       H  0.80350616  0.19579559  0.92478386     0.16500
C1225       C  0.92522257  0.76401630  0.62355401    -0.01700
C1226       C  0.89935742  0.75289808  0.63216550     0.06900
C1227       C  0.89462538  0.74795772  0.66062795    -0.07700
C1228       C  0.91499913  0.75460837  0.68061057     0.04300
C1229       C  0.94073444  0.76640402  0.67206874    -0.14900
C1230       C  0.94547762  0.77089132  0.64345392    -0.08200
C1231       C  0.87753060  0.74531397  0.61153257     0.05300
C1232       C  0.87108199  0.71715044  0.60775950    -0.09400
C1233       C  0.85270165  0.70870198  0.58668405     0.00300
C1234       C  0.84096503  0.72876056  0.56816970     0.00100
C1235       C  0.84622838  0.75718961  0.57323815    -0.12900
C1236       C  0.86403718  0.76554311  0.59492115     0.00600
C1237       C  0.84599685  0.67935915  0.58521454     0.39900
C1238       C  0.86790410  0.79494498  0.60010552     0.36500
C1239       C  0.93172381  0.76777982  0.59434009     0.36200
C1240       C  0.90844441  0.75012770  0.70969679     0.37000
N1241       N  0.84052128  0.65588063  0.58418695    -0.43800
N1242       N  0.87090630  0.81847147  0.60452684    -0.44200
N1243       N  0.90318642  0.74655014  0.73300884    -0.41600
N1244       N  0.93685618  0.77069853  0.57091083    -0.43000
H1245       H  0.96525724  0.77952594  0.63653934     0.13100
H1246       H  0.87481440  0.73916043  0.66724078     0.09600
H1247       H  0.88082043  0.70163511  0.62112608     0.10700
H1248       H  0.83673258  0.77298980  0.56006809     0.16500
C1249       C  0.08004878  0.73529470  0.64097347    -0.01700
C1250       C  0.10492129  0.75074218  0.63753345     0.06900
C1251       C  0.11009007  0.77360252  0.65497534    -0.07700
C1252       C  0.09075630  0.78145186  0.67545776     0.04300
C1253       C  0.06558638  0.76630171  0.67863506    -0.14900
C1254       C  0.06077173  0.74299311  0.66159764    -0.08200
C1255       C  0.12583004  0.74342735  0.61585478     0.05300
C1256       C  0.12996043  0.76161313  0.59327069    -0.09400
C1257       C  0.14889843  0.75496039  0.57194018     0.00300
C1258       C  0.16426525  0.72978260  0.57323504     0.00100
C1259       C  0.16037869  0.71186505  0.59612518    -0.12900
C1260       C  0.14149812  0.71856289  0.61740767     0.00600
C1261       C  0.15086954  0.77341548  0.54817850     0.39900
C1262       C  0.13865525  0.69978145  0.64080193     0.36500
C1263       C  0.07332306  0.71224779  0.62279006     0.36200
C1264       C  0.09752424  0.80479145  0.69327164     0.37000
N1265       N  0.15240967  0.78804009  0.52901253    -0.43800
N1266       N  0.13618191  0.68483751  0.65961042    -0.44200
N1267       N  0.10310282  0.82342493  0.70756203    -0.41600
N1268       N  0.06793974  0.69378801  0.60819923    -0.43000
H1269       H  0.04131880  0.73153501  0.66352845     0.13100
H1270       H  0.12932763  0.78532941  0.65255884     0.09600
H1271       H  0.11784765  0.78072081  0.59199715     0.10700
H1272       H  0.17216559  0.69255703  0.59739528     0.16500
C1273       C  0.88267538  0.87123937  0.72948297    -0.01700
C1274       C  0.87804087  0.89382774  0.74763864     0.06900
C1275       C  0.90082242  0.90627522  0.76123254    -0.07700
C1276       C  0.92799197  0.89590992  0.75772932     0.04300
C1277       C  0.93262334  0.87265938  0.74020612    -0.14900
C1278       C  0.90984484  0.86102656  0.72570517    -0.08200
C1279       C  0.84964035  0.90471385  0.75339039     0.05300
C1280       C  0.83698035  0.89808875  0.77888068    -0.09400
C1281       C  0.81253391  0.91171541  0.78745966     0.00300
C1282       C  0.80042789  0.93264820  0.77031878     0.00100
C1283       C  0.81188375  0.93727080  0.74362221    -0.12900
C1284       C  0.83647655  0.92372095  0.73523337     0.00600
C1285       C  0.80106314  0.90451108  0.81440763     0.39900
C1286       C  0.84911983  0.93125282  0.70893127     0.36500
C1287       C  0.85978260  0.85736664  0.71561458     0.36200
C1288       C  0.95064930  0.90963782  0.77216661     0.37000
N1289       N  0.79187753  0.89888796  0.83603379    -0.43800
N1290       N  0.85944971  0.93727635  0.68794138    -0.44200
N1291       N  0.96874855  0.92075283  0.78372034    -0.41600
N1292       N  0.84153039  0.84603455  0.70453397    -0.43000
H1293       H  0.91301585  0.84291366  0.71250246     0.13100
H1294       H  0.89725157  0.92393892  0.77493555     0.09600
H1295       H  0.84695853  0.88309945  0.79266553     0.10700
H1296       H  0.80303950  0.95319160  0.73014787     0.16500
C1297       C  0.34972925  0.10298186  0.75694634    -0.01700
C1298       C  0.37868685  0.09743026  0.75660771     0.06900
C1299       C  0.38831315  0.07020604  0.76127515    -0.07700
C1300       C  0.36948582  0.04869293  0.76716333     0.04300
C1301       C  0.34057335  0.05448022  0.76878555    -0.14900
C1302       C  0.33087457  0.08152277  0.76310512    -0.08200
C1303       C  0.39922528  0.11943677  0.74986404     0.05300
C1304       C  0.41216003  0.13433890  0.77148958    -0.09400
C1305       C  0.43232698  0.15479921  0.76567338     0.00300
C1306       C  0.43998901  0.16034096  0.73762720     0.00100
C1307       C  0.42640981  0.14544268  0.71614325    -0.12900
C1308       C  0.40624634  0.12528453  0.72202758     0.00600
C1309       C  0.44513538  0.16904468  0.78893497     0.39900
C1310       C  0.39313744  0.11062262  0.69916549     0.36500
C1311       C  0.33905631  0.13053689  0.75105038     0.36200
C1312       C  0.38006826  0.02062576  0.77038554     0.37000
N1313       N  0.45525297  0.18042061  0.80770173    -0.43800
N1314       N  0.38255811  0.09886140  0.68090455    -0.44200
N1315       N  0.38829380  0.99802549  0.77268451    -0.41600
N1316       N  0.33062294  0.15264026  0.74616256    -0.43000
H1317       H  0.30865409  0.08602818  0.76421754     0.13100
H1318       H  0.41054041  0.06576082  0.76007101     0.09600
H1319       H  0.40660569  0.12979628  0.79297195     0.10700
H1320       H  0.43153801  0.14946154  0.69445831     0.16500
C1321       C  0.37572115  0.90161121  0.78353551    -0.01700
C1322       C  0.37202053  0.88811420  0.75772178     0.06900
C1323       C  0.34895451  0.89503973  0.74100020    -0.07700
C1324       C  0.33002687  0.91579703  0.74921926     0.04300
C1325       C  0.33393537  0.92988223  0.77496158    -0.14900
C1326       C  0.35666027  0.92203923  0.79203165    -0.08200
C1327       C  0.39338113  0.86862115  0.74670233     0.05300
C1328       C  0.39691745  0.84233432  0.75908490    -0.09400
C1329       C  0.41793032  0.82408151  0.74983068     0.00300
C1330       C  0.43598465  0.83230754  0.72791307     0.00100
C1331       C  0.43183688  0.85848689  0.71528835    -0.12900
C1332       C  0.41086551  0.87655973  0.72446841     0.00600
C1333       C  0.41991508  0.79690746  0.76267926     0.39900
C1334       C  0.40839298  0.90365571  0.71149567     0.36500
C1335       C  0.39985826  0.89608249  0.80085942     0.36200
C1336       C  0.30714321  0.92220165  0.73056322     0.37000
N1337       N  0.42135928  0.77509960  0.77294669    -0.43800
N1338       N  0.40637496  0.92539191  0.70118059    -0.44200
N1339       N  0.28893705  0.92732310  0.71544185    -0.41600
N1340       N  0.41927855  0.89181310  0.81467663    -0.43000
H1341       H  0.36031121  0.93265865  0.81168704     0.13100
H1342       H  0.34620008  0.88466614  0.72105512     0.09600
H1343       H  0.38325880  0.83614079  0.77605596     0.10700
H1344       H  0.44556720  0.86530029  0.69861992     0.16500
C1345       C  0.17489109  0.90283778  0.75292413    -0.01700
C1346       C  0.14747409  0.91389029  0.75366737     0.06900
C1347       C  0.14352496  0.94182731  0.76106490    -0.07700
C1348       C  0.16608739  0.95851977  0.76876477     0.04300
C1349       C  0.19348857  0.94728777  0.76926103    -0.14900
C1350       C  0.19773722  0.91966478  0.76048740    -0.08200
C1351       C  0.12217093  0.89640550  0.74983743     0.05300
C1352       C  0.11680218  0.87540896  0.76941556    -0.09400
C1353       C  0.09131507  0.86112664  0.76950649     0.00300
C1354       C  0.07029865  0.86798723  0.74965762     0.00100
C1355       C  0.07621227  0.88842475  0.72943863    -0.12900
C1356       C  0.10177794  0.90265157  0.72945187     0.00600
C1357       C  0.08780643  0.83931412  0.79003042     0.39900
C1358       C  0.10658991  0.92367220  0.70841892     0.36500
C1359       C  0.17993103  0.87432403  0.74468196     0.36200
C1360       C  0.16035578  0.98718626  0.77611151     0.37000
N1361       N  0.08521059  0.82189337  0.80655540    -0.43800
N1362       N  0.11039450  0.94053423  0.69156173    -0.44200
N1363       N  0.15556857  0.01007817  0.78206938    -0.41600
N1364       N  0.18387888  0.85145405  0.73804391    -0.43000
H1365       H  0.21869334  0.91096348  0.76051454     0.13100
H1366       H  0.12251083  0.95040074  0.76174330     0.09600
H1367       H  0.13235929  0.87069520  0.78526084     0.10700
H1368       H  0.06067575  0.89364901  0.71375787     0.16500
C1369       C  0.72837458  0.63896463  0.92071425    -0.01700
C1370       C  0.74740324  0.63076767  0.89961431     0.06900
C1371       C  0.77415093  0.64277204  0.89920234    -0.07700
C1372       C  0.78288850  0.66088584  0.92031604     0.04300
C1373       C  0.76425649  0.66822464  0.94203855    -0.14900
C1374       C  0.73685833  0.65773007  0.94144482    -0.08200
C1375       C  0.74035437  0.60924677  0.87826487     0.05300
C1376       C  0.71576213  0.61200086  0.86249683    -0.09400
C1377       C  0.70781641  0.59151200  0.84329472     0.00300
C1378       C  0.72574672  0.56857304  0.83795609     0.00100
C1379       C  0.75084343  0.56632756  0.85300959    -0.12900
C1380       C  0.75785194  0.58588115  0.87354210     0.00600
C1381       C  0.68074382  0.59435573  0.83019703     0.39900
C1382       C  0.78225745  0.58055562  0.89056227     0.36500
C1383       C  0.70041474  0.62772199  0.92237140     0.36200
C1384       C  0.81111577  0.67148116  0.91899622     0.37000
N1385       N  0.65868876  0.59666551  0.82047894    -0.43800
N1386       N  0.80173304  0.57629044  0.90430501    -0.44200
N1387       N  0.83386369  0.67960340  0.91782339    -0.41600
N1388       N  0.67789970  0.61898319  0.92368182    -0.43000
H1389       H  0.72231119  0.66330795  0.95790654     0.13100
H1390       H  0.78857106  0.63745084  0.88254667     0.09600
H1391       H  0.70233615  0.62998413  0.86561968     0.10700
H1392       H  0.76434061  0.54840381  0.84979091     0.16500
C1393       C  0.76454808  0.61797148  0.09015162    -0.01700
C1394       C  0.74522214  0.62559641  0.11091921     0.06900
C1395       C  0.73373468  0.65250294  0.11079562    -0.07700
C1396       C  0.74141119  0.67194715  0.09029014     0.04300
C1397       C  0.76096617  0.66438857  0.06936126    -0.14900
C1398       C  0.77230079  0.63727688  0.06972645    -0.08200
C1399       C  0.73635680  0.60526716  0.13241278     0.05300
C1400       C  0.75392514  0.59999569  0.15526257    -0.09400
C1401       C  0.74742112  0.57913873  0.17472220     0.00300
C1402       C  0.72282598  0.56299509  0.17132142     0.00100
C1403       C  0.70503110  0.56895968  0.14857708    -0.12900
C1404       C  0.71163793  0.58976010  0.12922307     0.00600
C1405       C  0.76629464  0.57509086  0.19794613     0.39900
C1406       C  0.69328370  0.59419215  0.10565136     0.36500
C1407       C  0.77625376  0.59020493  0.08914862     0.36200
C1408       C  0.72953492  0.69961350  0.09186514     0.37000
N1409       N  0.78143285  0.57185046  0.21655274    -0.43800
N1410       N  0.67865910  0.59774471  0.08670179    -0.44200
N1411       N  0.72001556  0.72178319  0.09318192    -0.41600
N1412       N  0.78550238  0.56790188  0.08842008    -0.43000
H1413       H  0.78708142  0.63093482  0.05376633     0.13100
H1414       H  0.71880367  0.65831157  0.12682478     0.09600
H1415       H  0.77300179  0.61198636  0.15764178     0.10700
H1416       H  0.68614053  0.55687937  0.14539098     0.16500
C1417       C  0.90729218  0.74190482  0.91183221    -0.01700
C1418       C  0.89141568  0.74868241  0.88772773     0.06900
C1419       C  0.86220779  0.75031527  0.88989947    -0.07700
C1420       C  0.84889368  0.74670349  0.91559962     0.04300
C1421       C  0.86479719  0.74076079  0.93974102    -0.14900
C1422       C  0.89385023  0.73787408  0.93757002    -0.08200
C1423       C  0.90484375  0.75483783  0.86031686     0.05300
C1424       C  0.92299058  0.73513573  0.84845511    -0.09400
C1425       C  0.93859388  0.74139534  0.82453089     0.00300
C1426       C  0.93537249  0.76765397  0.81123956     0.00100
C1427       C  0.91554923  0.78649864  0.82201194    -0.12900
C1428       C  0.90061486  0.78050703  0.84641153     0.00600
C1429       C  0.95967335  0.72150334  0.81608662     0.39900
C1430       C  0.88249354  0.80186988  0.85765286     0.36500
C1431       C  0.93742359  0.73990341  0.91096889     0.36200
C1432       C  0.81873629  0.74859352  0.91656724     0.37000
N1433       N  0.97680915  0.70570511  0.80961210    -0.43800
N1434       N  0.86797231  0.81901344  0.86658618    -0.44200
N1435       N  0.79456638  0.74982498  0.91714045    -0.41600
N1436       N  0.96156018  0.73809932  0.91026300    -0.43000
H1437       H  0.90607937  0.73326197  0.95610142     0.13100
H1438       H  0.84976684  0.75472932  0.87145678     0.09600
H1439       H  0.92597893  0.71519252  0.85873434     0.10700
H1440       H  0.91273368  0.80669366  0.81218448     0.16500
C1441       C  0.74893102  0.90370211  0.91720727    -0.01700
C1442       C  0.73685323  0.87920220  0.90621898     0.06900
C1443       C  0.71891220  0.88109134  0.88314670    -0.07700
C1444       C  0.71460189  0.90666232  0.86965499     0.04300
C1445       C  0.72878419  0.93074210  0.87919037    -0.14900
C1446       C  0.74518321  0.92907208  0.90341486    -0.08200
C1447       C  0.74382138  0.85147209  0.91796514     0.05300
C1448       C  0.72273677  0.83521083  0.93013787    -0.09400
C1449       C  0.72949360  0.81095128  0.94507664     0.00300
C1450       C  0.75786053  0.80346408  0.94879194     0.00100
C1451       C  0.77852212  0.81828742  0.93417311    -0.12900
C1452       C  0.77165374  0.84171935  0.91833199     0.00600
C1453       C  0.70707321  0.79484356  0.95707092     0.39900
C1454       C  0.79354940  0.85558611  0.90289217     0.36500
C1455       C  0.76545896  0.90328210  0.94247781     0.36200
C1456       C  0.69702059  0.90707496  0.84511697     0.37000
N1457       N  0.68899626  0.78167932  0.96619753    -0.43800
N1458       N  0.81112506  0.86650946  0.89042581    -0.44200
N1459       N  0.68278927  0.90717399  0.82555423    -0.41600
N1460       N  0.77866413  0.90299194  0.96274484    -0.43000
H1461       H  0.75561260  0.94756822  0.91124547     0.13100
H1462       H  0.70917353  0.86236326  0.87500442     0.09600
H1463       H  0.70112723  0.84204015  0.92885560     0.10700
H1464       H  0.80028290  0.81197932  0.93576441     0.16500
C1465       C  0.09818865  0.74387452  0.36335259    -0.01700
C1466       C  0.10808148  0.76330217  0.38306817     0.06900
C1467       C  0.09889706  0.79096176  0.38161603    -0.07700
C1468       C  0.07919252  0.79932302  0.36159788     0.04300
C1469       C  0.06824285  0.77957255  0.34223694    -0.14900
C1470       C  0.07848631  0.75204450  0.34329110    -0.08200
C1471       C  0.12719624  0.75488759  0.40602550     0.05300
C1472       C  0.15459634  0.76526328  0.40665646    -0.09400
C1473       C  0.17346338  0.75691000  0.42753202     0.00300
C1474       C  0.16484692  0.73770050  0.44833882     0.00100
C1475       C  0.13705843  0.72807505  0.44792614    -0.12900
C1476       C  0.11828333  0.73663263  0.42725295     0.00600
C1477       C  0.20159474  0.76780365  0.42641733     0.39900
C1478       C  0.08977113  0.72680244  0.42855224     0.36500
C1479       C  0.10800059  0.71538170  0.36336224     0.36200
C1480       C  0.07054653  0.82821009  0.36215928     0.37000
N1481       N  0.22410123  0.77662398  0.42548822    -0.43800
N1482       N  0.06691833  0.71895394  0.42960432    -0.44200
N1483       N  0.06375475  0.85137916  0.36289475    -0.41600
N1484       N  0.11587876  0.69255347  0.36350158    -0.43000
H1485       H  0.07085547  0.73659717  0.32863406     0.13100
H1486       H  0.10668649  0.80595992  0.39669041     0.09600
H1487       H  0.16137968  0.77957620  0.39048448     0.10700
H1488       H  0.12978733  0.71387188  0.46397323     0.16500
C1489       C  0.88887200  0.72661008  0.41715927    -0.01700
C1490       C  0.87944254  0.74224978  0.39402669     0.06900
C1491       C  0.85121769  0.75023866  0.39262603    -0.07700
C1492       C  0.83258707  0.74359454  0.41420046     0.04300
C1493       C  0.84223910  0.72872816  0.43787246    -0.14900
C1494       C  0.87033655  0.72004652  0.43874636    -0.08200
C1495       C  0.89910472  0.75151579  0.37188974     0.05300
C1496       C  0.91332043  0.73156591  0.35580898    -0.09400
C1497       C  0.93413166  0.73948968  0.33678988     0.00300
C1498       C  0.94135010  0.76800279  0.33396933     0.00100
C1499       C  0.92591250  0.78794574  0.34909963    -0.12900
C1500       C  0.90491154  0.78000435  0.36772629     0.00600
C1501       C  0.94801721  0.71778215  0.32114886     0.39900
C1502       C  0.89024556  0.80150064  0.38297648     0.36500
C1503       C  0.91764481  0.71765188  0.41960420     0.36200
C1504       C  0.80355929  0.75133299  0.41090132     0.37000
N1505       N  0.95897350  0.70036232  0.30848293    -0.43800
N1506       N  0.87833384  0.81873207  0.39502217    -0.44200
N1507       N  0.78028289  0.75742883  0.40810865    -0.41600
N1508       N  0.94065103  0.71032105  0.42150122    -0.43000
H1509       H  0.87803130  0.70843322  0.45662809     0.13100
H1510       H  0.84376417  0.76179649  0.37460631     0.09600
H1511       H  0.90846536  0.70964639  0.35854734     0.10700
H1512       H  0.93045309  0.80996773  0.34668831     0.16500
C1513       C  0.94293473  0.73328938  0.15843151    -0.01700
C1514       C  0.91672473  0.74605771  0.15367160     0.06900
C1515       C  0.90611908  0.76477626  0.17358365    -0.07700
C1516       C  0.92216039  0.77258195  0.19675289     0.04300
C1517       C  0.94906713  0.76107062  0.20062385    -0.14900
C1518       C  0.95875806  0.74065408  0.18198758    -0.08200
C1519       C  0.90136201  0.74249731  0.12686475     0.05300
C1520       C  0.89009266  0.71647279  0.11972889    -0.09400
C1521       C  0.87481609  0.71288241  0.09488984     0.00300
C1522       C  0.87080786  0.73573963  0.07641339     0.00100
C1523       C  0.88281487  0.76158274  0.08357420    -0.12900
C1524       C  0.89775732  0.76512472  0.10841863     0.00600
C1525       C  0.86278469  0.68578137  0.08968537     0.39900
C1526       C  0.90929132  0.79228924  0.11450137     0.36500
C1527       C  0.95502133  0.71442916  0.13827715     0.36200
C1528       C  0.91101398  0.79311392  0.21583606     0.37000
N1529       N  0.85313043  0.66403245  0.08565860    -0.43800
N1530       N  0.91842919  0.81405950  0.11947972    -0.44200
N1531       N  0.90219189  0.80954825  0.23118864    -0.41600
N1532       N  0.96473886  0.69940738  0.12204425    -0.43000
H1533       H  0.97959081  0.73204152  0.18465379     0.13100
H1534       H  0.88582656  0.77437219  0.17022925     0.09600
H1535       H  0.89278070  0.69903461  0.13392234     0.10700
H1536       H  0.88025320  0.77942715  0.06988844     0.16500
C1537       C  0.90579184  0.21686752  0.37741871    -0.01700
C1538       C  0.89752685  0.24465548  0.38202857     0.06900
C1539       C  0.90893656  0.26579804  0.36527146    -0.07700
C1540       C  0.92858471  0.25967984  0.34428438     0.04300
C1541       C  0.93760437  0.23181556  0.34007417    -0.14900
C1542       C  0.92546578  0.21071104  0.35668551    -0.08200
C1543       C  0.87780242  0.25214709  0.40489538     0.05300
C1544       C  0.88815400  0.26625751  0.42833782    -0.09400
C1545       C  0.87043452  0.27376339  0.45039864     0.00300
C1546       C  0.84150291  0.26745724  0.44909805     0.00100
C1547       C  0.83132276  0.25266111  0.42588873    -0.12900
C1548       C  0.84916310  0.24508599  0.40386657     0.00600
C1549       C  0.88269815  0.28715511  0.47450015     0.39900
C1550       C  0.83754116  0.23074763  0.38004903     0.36500
C1551       C  0.89503912  0.19436114  0.39432635     0.36200
C1552       C  0.93927950  0.28253246  0.32788115     0.37000
N1553       N  0.89242523  0.29780908  0.49389028    -0.43800
N1554       N  0.82834037  0.21919928  0.36092770    -0.44200
N1555       N  0.94768259  0.30090407  0.31466881    -0.41600
N1556       N  0.88637863  0.17632048  0.40782460    -0.43000
H1557       H  0.93163767  0.18912715  0.35386760     0.13100
H1558       H  0.90252992  0.28723061  0.36872550     0.09600
H1559       H  0.91026097  0.27123005  0.42947983     0.10700
H1560       H  0.80922810  0.24772371  0.42453574     0.16500
C1561       C  0.11471321  0.27066495  0.42753322    -0.01700
C1562       C  0.12382941  0.25541758  0.40411521     0.06900
C1563       C  0.15210338  0.24799368  0.40183516    -0.07700
C1564       C  0.17130224  0.25521781  0.42277912     0.04300
C1565       C  0.16216210  0.27019789  0.44654945    -0.14900
C1566       C  0.13383174  0.27799626  0.44840994    -0.08200
C1567       C  0.10382618  0.24623432  0.38233858     0.05300
C1568       C  0.10189619  0.26109940  0.35719901    -0.09400
C1569       C  0.08213071  0.25373947  0.33678612     0.00300
C1570       C  0.06380107  0.23102663  0.34150825     0.00100
C1571       C  0.06646674  0.21585573  0.36659450    -0.12900
C1572       C  0.08616160  0.22326290  0.38685552     0.00600
C1573       C  0.08166884  0.26950312  0.31110238     0.39900
C1574       C  0.08783086  0.20707413  0.41225075     0.36500
C1575       C  0.08580467  0.27897188  0.43049456     0.36200
C1576       C  0.20034610  0.24789888  0.41882244     0.37000
N1577       N  0.08138156  0.28213604  0.29050672    -0.43800
N1578       N  0.08921900  0.19414907  0.43261783    -0.44200
N1579       N  0.22365414  0.24213216  0.41568230    -0.41600
N1580       N  0.06261673  0.28556522  0.43277444    -0.43000
H1581       H  0.12648979  0.28960988  0.46640930     0.13100
H1582       H  0.15912701  0.23638935  0.38370418     0.09600
H1583       H  0.11570592  0.27866383  0.35366132     0.10700
H1584       H  0.05277397  0.19833773  0.37073804     0.16500
C1585       C  0.91413029  0.23024735  0.15927051    -0.01700
C1586       C  0.91451188  0.25843597  0.15105183     0.06900
C1587       C  0.92789983  0.27804961  0.16815641    -0.07700
C1588       C  0.94248872  0.26958531  0.19226089     0.04300
C1589       C  0.94412312  0.24087338  0.19924412    -0.14900
C1590       C  0.92894437  0.22171707  0.18294859    -0.08200
C1591       C  0.90167774  0.26710046  0.12413542     0.05300
C1592       C  0.87575110  0.28080569  0.12421015    -0.09400
C1593       C  0.86073085  0.28463013  0.09929458     0.00300
C1594       C  0.87162056  0.27429324  0.07386387     0.00100
C1595       C  0.89823900  0.26198082  0.07367719    -0.12900
C1596       C  0.91346549  0.25873822  0.09844941     0.00600
C1597       C  0.83334345  0.29728923  0.10074411     0.39900
C1598       C  0.94092932  0.24622852  0.09714266     0.36500
C1599       C  0.89887724  0.20961434  0.14344283     0.36200
C1600       C  0.95626225  0.29072930  0.20867640     0.37000
N1601       N  0.81140995  0.30744923  0.10205989    -0.43800
N1602       N  0.96301095  0.23636233  0.09602507    -0.44200
N1603       N  0.96694483  0.30785846  0.22192201    -0.41600
N1604       N  0.88654906  0.19317468  0.13076000    -0.43000
H1605       H  0.92922922  0.19973102  0.18827940     0.13100
H1606       H  0.92764595  0.29987409  0.16220845     0.09600
H1607       H  0.86663728  0.28727542  0.14390749     0.10700
H1608       H  0.90690595  0.25437011  0.05418251     0.16500
C1609       C  0.85776661  0.28402811  0.62013574    -0.01700
C1610       C  0.87345589  0.25907414  0.61888067     0.06900
C1611       C  0.87004494  0.24143057  0.59573739    -0.07700
C1612       C  0.85198818  0.24858091  0.57372966     0.04300
C1613       C  0.83679546  0.27387898  0.57460259    -0.14900
C1614       C  0.83992487  0.29137427  0.59796885    -0.08200
C1615       C  0.89419653  0.25116588  0.64087182     0.05300
C1616       C  0.88988504  0.22681329  0.65658038    -0.09400
C1617       C  0.90998177  0.21743895  0.67587480     0.00300
C1618       C  0.93532586  0.23227507  0.67933357     0.00100
C1619       C  0.93912559  0.25715995  0.66431605    -0.12900
C1620       C  0.91895546  0.26661701  0.64521525     0.00600
C1621       C  0.90363267  0.19313472  0.69252256     0.39900
C1622       C  0.92471256  0.29165055  0.62950838     0.36500
C1623       C  0.85924596  0.30212272  0.64417767     0.36200
C1624       C  0.85071154  0.23039356  0.54973618     0.37000
N1625       N  0.89837120  0.17383344  0.70603974    -0.43800
N1626       N  0.92931243  0.31181586  0.61706986    -0.44200
N1627       N  0.84969344  0.21596302  0.53039973    -0.41600
N1628       N  0.86040824  0.31657524  0.66348908    -0.43000
H1629       H  0.82822864  0.31075033  0.59900375     0.13100
H1630       H  0.88210389  0.22229039  0.59454750     0.09600
H1631       H  0.87074359  0.21504172  0.65367406     0.10700
H1632       H  0.95841953  0.26879094  0.66674220     0.16500
C1633       C  0.08057545  0.23003364  0.62570138    -0.01700
C1634       C  0.10508020  0.24356435  0.63465457     0.06900
C1635       C  0.10828948  0.25057691  0.66287230    -0.07700
C1636       C  0.08735628  0.24430602  0.68229314     0.04300
C1637       C  0.06226175  0.23152739  0.67321685    -0.14900
C1638       C  0.05939563  0.22431998  0.64488045    -0.08200
C1639       C  0.12649133  0.25263477  0.61443611     0.05300
C1640       C  0.12746081  0.28086900  0.60745135    -0.09400
C1641       C  0.14562062  0.29057042  0.58683978     0.00300
C1642       C  0.16390642  0.27165179  0.57295797     0.00100
C1643       C  0.16321339  0.24329896  0.58070485    -0.12900
C1644       C  0.14459014  0.23370481  0.60110469     0.00600
C1645       C  0.14395573  0.31991076  0.58012436     0.39900
C1646       C  0.14409616  0.20435749  0.60781778     0.36500
C1647       C  0.07654010  0.22219110  0.59686190     0.36200
C1648       C  0.09286380  0.24996273  0.71140934     0.37000
N1649       N  0.14227720  0.34339480  0.57478030    -0.43800
N1650       N  0.14353468  0.18082973  0.61315542    -0.44200
N1651       N  0.09739765  0.25428102  0.73475716    -0.41600
N1652       N  0.07339937  0.21572237  0.57379467    -0.43000
H1653       H  0.04047576  0.21419761  0.63758116     0.13100
H1654       H  0.12730948  0.26083767  0.66971840     0.09600
H1655       H  0.11326588  0.29531769  0.61765989     0.10700
H1656       H  0.17686974  0.22839256  0.57049636     0.16500
C1657       C  0.90492711  0.09194377  0.72968054    -0.01700
C1658       C  0.88554388  0.09624260  0.75139584     0.06900
C1659       C  0.89160843  0.11562326  0.77237927    -0.07700
C1660       C  0.91667484  0.13060172  0.77221998     0.04300
C1661       C  0.93659218  0.12600901  0.75072874    -0.14900
C1662       C  0.93014768  0.10677164  0.72946960    -0.08200
C1663       C  0.86004481  0.07895165  0.75426058     0.05300
C1664       C  0.86344422  0.05061177  0.76026716    -0.09400
C1665       C  0.84048284  0.03400604  0.76697087     0.00300
C1666       C  0.81330102  0.04577434  0.76770262     0.00100
C1667       C  0.80966053  0.07382476  0.76010613    -0.12900
C1668       C  0.83287247  0.09053093  0.75363453     0.00600
C1669       C  0.84560285  0.00497826  0.77332714     0.39900
C1670       C  0.82850210  0.11953297  0.74682133     0.36500
C1671       C  0.89911866  0.07273085  0.70721280     0.36200
C1672       C  0.92072304  0.15106280  0.79399691     0.37000
N1673       N  0.85004078  0.98182018  0.77851067    -0.43800
N1674       N  0.82514462  0.14280127  0.74133084    -0.44200
N1675       N  0.92387715  0.16746767  0.81143627    -0.41600
N1676       N  0.89434952  0.05736896  0.68920362    -0.43000
H1677       H  0.94483035  0.10324253  0.71258478     0.13100
H1678       H  0.87674464  0.11881955  0.78919585     0.09600
H1679       H  0.88430935  0.04165542  0.76070971     0.10700
H1680       H  0.78890180  0.08298560  0.76047222     0.16500
C1681       C  0.10395389  0.09446643  0.76151955    -0.01700
C1682       C  0.12648479  0.10246395  0.74437616     0.06900
C1683       C  0.12180500  0.12132798  0.72254023    -0.07700
C1684       C  0.09535782  0.13355633  0.71864400     0.04300
C1685       C  0.07299980  0.12679063  0.73694384    -0.14900
C1686       C  0.07763300  0.10664444  0.75778317    -0.08200
C1687       C  0.15497512  0.09133467  0.74959426     0.05300
C1688       C  0.16517044  0.06994828  0.73252404    -0.09400
C1689       C  0.18881515  0.05451210  0.74038901     0.00300
C1690       C  0.20260266  0.06050159  0.76595528     0.00100
C1691       C  0.19368046  0.08359707  0.78167644    -0.12900
C1692       C  0.17018018  0.09908397  0.77360111     0.00600
C1693       C  0.19649455  0.03095233  0.72321758     0.39900
C1694       C  0.16120572  0.12206045  0.79091293     0.36500
C1695       C  0.10752293  0.07402520  0.78340175     0.36200
C1696       C  0.09247914  0.15396771  0.69666890     0.37000
N1697       N  0.20256458  0.01200487  0.70952761    -0.43800
N1698       N  0.15399717  0.14052054  0.80471291    -0.44200
N1699       N  0.09055789  0.17018459  0.67887317    -0.41600
N1700       N  0.11048282  0.05766418  0.80092659    -0.43000
H1701       H  0.06076559  0.10084155  0.77174622     0.13100
H1702       H  0.13907621  0.12715908  0.70908212     0.09600
H1703       H  0.15351649  0.06407473  0.71398887     0.10700
H1704       H  0.20429947  0.08878123  0.80101958     0.16500
C1705       C  0.95363301  0.25063227  0.86707428    -0.01700
C1706       C  0.92486559  0.25658114  0.86523070     0.06900
C1707       C  0.91127830  0.25478509  0.83927052    -0.07700
C1708       C  0.92583720  0.24584263  0.81544188     0.04300
C1709       C  0.95426109  0.23824709  0.81776641    -0.14900
C1710       C  0.96796920  0.24125894  0.84353051    -0.08200
C1711       C  0.90799116  0.25961358  0.89090246     0.05300
C1712       C  0.90114722  0.28610010  0.90111809    -0.09400
C1713       C  0.88556700  0.28908200  0.92579758     0.00300
C1714       C  0.87665550  0.26503331  0.94070530     0.00100
C1715       C  0.88415804  0.23859347  0.93029511    -0.12900
C1716       C  0.89951666  0.23577420  0.90570742     0.00600
C1717       C  0.87864104  0.31702831  0.93467496     0.39900
C1718       C  0.90616138  0.20810288  0.89575020     0.36500
C1719       C  0.96856303  0.25290286  0.89320932     0.36200
C1720       C  0.91075101  0.24256956  0.78952382     0.37000
N1721       N  0.87313964  0.33946985  0.94169250    -0.43800
N1722       N  0.91157633  0.18604628  0.88756819    -0.44200
N1723       N  0.89866025  0.23984749  0.76875338    -0.41600
N1724       N  0.98056229  0.25479631  0.91412135    -0.43000
H1725       H  0.98993233  0.23579582  0.84537828     0.13100
H1726       H  0.88901854  0.25900373  0.83796043     0.09600
H1727       H  0.90791817  0.30443534  0.88972961     0.10700
H1728       H  0.87772239  0.21983522  0.94115482     0.16500
C1729       C  0.23529281  0.61553200  0.08651135    -0.01700
C1730       C  0.25130796  0.62435602  0.10958003     0.06900
C1731       C  0.26138130  0.65178175  0.11030406    -0.07700
C1732       C  0.25523067  0.67065040  0.08879471     0.04300
C1733       C  0.23879533  0.66200195  0.06571137    -0.14900
C1734       C  0.22910550  0.63429178  0.06499257    -0.08200
C1735       C  0.25930512  0.60479004  0.13225776     0.05300
C1736       C  0.28755970  0.59796672  0.13540186    -0.09400
C1737       C  0.29624118  0.57826169  0.15510025     0.00300
C1738       C  0.27615660  0.56438216  0.17208756     0.00100
C1739       C  0.24789753  0.57239259  0.16970741    -0.12900
C1740       C  0.23943956  0.59255177  0.15020046     0.00600
C1741       C  0.32598742  0.57310429  0.15705181     0.39900
C1742       C  0.21036351  0.60067787  0.14919776     0.36500
C1743       C  0.22560532  0.58712022  0.08409150     0.36200
C1744       C  0.26534916  0.69886653  0.09162774     0.37000
N1745       N  0.34985382  0.56917288  0.15836896    -0.43800
N1746       N  0.18708784  0.60731630  0.14842300    -0.44200
N1747       N  0.27345220  0.72147513  0.09396096    -0.41600
N1748       N  0.21781271  0.56436505  0.08220923    -0.43000
H1749       H  0.21671660  0.62709481  0.04743736     0.13100
H1750       H  0.27395050  0.65851907  0.12792744     0.09600
H1751       H  0.30293312  0.60782659  0.12198721     0.10700
H1752       H  0.23222329  0.56264666  0.18280668     0.16500
C1753       C  0.22728963  0.64642597  0.89391892    -0.01700
C1754       C  0.25266636  0.63141338  0.89541859     0.06900
C1755       C  0.27093200  0.63640451  0.91781887    -0.07700
C1756       C  0.26370406  0.65491532  0.93928962     0.04300
C1757       C  0.23754315  0.66877105  0.93866769    -0.14900
C1758       C  0.21979797  0.66458446  0.91559259    -0.08200
C1759       C  0.26025879  0.60968270  0.87453518     0.05300
C1760       C  0.28514479  0.61252771  0.85929093    -0.09400
C1761       C  0.29400076  0.59165052  0.84080339     0.00300
C1762       C  0.27756745  0.56740746  0.83703820     0.00100
C1763       C  0.25241391  0.56485032  0.85193708    -0.12900
C1764       C  0.24395987  0.58540206  0.87092777     0.00600
C1765       C  0.31991829  0.59577590  0.82587100     0.39900
C1766       C  0.21944579  0.58025636  0.88774662     0.36500
C1767       C  0.20875759  0.64373964  0.87023505     0.36200
C1768       C  0.28289072  0.65799324  0.96239011     0.37000
N1769       N  0.34074316  0.59902003  0.81400534    -0.43800
N1770       N  0.19987150  0.57610120  0.90131405    -0.44200
N1771       N  0.29829284  0.66046468  0.98088484    -0.41600
N1772       N  0.19392856  0.64158444  0.85124062    -0.43000
H1773       H  0.19992040  0.67549190  0.91451585     0.13100
H1774       H  0.29057792  0.62509533  0.91897370     0.09600
H1775       H  0.29786951  0.63102484  0.86211893     0.10700
H1776       H  0.23993034  0.54611055  0.84970853     0.16500
C1777       C  0.09136351  0.74090918  0.83727486    -0.01700
C1778       C  0.08140925  0.74411159  0.86480476     0.06900
C1779       C  0.05392294  0.75298774  0.86925565    -0.07700
C1780       C  0.03672758  0.76019049  0.84685430     0.04300
C1781       C  0.04714262  0.75875608  0.81918356    -0.14900
C1782       C  0.07413200  0.74810154  0.81462290    -0.08200
C1783       C  0.09976076  0.74083136  0.88947777     0.05300
C1784       C  0.12008808  0.76117718  0.89448798    -0.09400
C1785       C  0.13599798  0.76085833  0.91900368     0.00300
C1786       C  0.13166353  0.73960407  0.93921197     0.00100
C1787       C  0.11143474  0.71899250  0.93378290    -0.12900
C1788       C  0.09542010  0.71959554  0.90928241     0.00600
C1789       C  0.15676063  0.78248480  0.92237223     0.39900
C1790       C  0.07464223  0.69825285  0.90477695     0.36500
C1791       C  0.11920853  0.73054818  0.83195175     0.36200
C1792       C  0.00858250  0.76931287  0.85309955     0.37000
N1793       N  0.17329589  0.79989670  0.92499799    -0.43800
N1794       N  0.05793695  0.68122427  0.90102292    -0.44200
N1795       N  0.98616534  0.77673856  0.85841351    -0.41600
N1796       N  0.14150405  0.72208522  0.82779224    -0.43000
H1797       H  0.08220228  0.74661376  0.79352136     0.13100
H1798       H  0.04618772  0.75519164  0.89044237     0.09600
H1799       H  0.12313771  0.77773734  0.87934465     0.10700
H1800       H  0.10784099  0.70249297  0.94883834     0.16500
C1801       C  0.13296477  0.72182579  0.12478961    -0.01700
C1802       C  0.10892710  0.73861403  0.12767536     0.06900
C1803       C  0.09554995  0.74895481  0.10373764    -0.07700
C1804       C  0.10645664  0.74388813  0.07714574     0.04300
C1805       C  0.13117420  0.72800174  0.07419055    -0.14900
C1806       C  0.14370486  0.71636456  0.09810666    -0.08200
C1807       C  0.09788400  0.74706765  0.15530314     0.05300
C1808       C  0.09978079  0.77520241  0.16296441    -0.09400
C1809       C  0.08560023  0.78529401  0.18640490     0.00300
C1810       C  0.06923772  0.76697570  0.20271975     0.00100
C1811       C  0.06919769  0.73839289  0.19628259    -0.12900
C1812       C  0.08311757  0.72839041  0.17255054     0.00600
C1813       C  0.08754377  0.81466503  0.19277260     0.39900
C1814       C  0.08005469  0.69942077  0.16501645     0.36500
C1815       C  0.14796974  0.71168950  0.14893089     0.36200
C1816       C  0.09204269  0.75543453  0.05326134     0.37000
N1817       N  0.08919547  0.83820854  0.19776784    -0.43800
N1818       N  0.07755452  0.67623138  0.15885130    -0.44200
N1819       N  0.08049140  0.76467574  0.03411822    -0.41600
N1820       N  0.16003813  0.70370254  0.16831862    -0.43000
H1821       H  0.16299671  0.70457415  0.09612205     0.13100
H1822       H  0.07685432  0.76163510  0.10593634     0.09600
H1823       H  0.11141765  0.78953603  0.14986410     0.10700
H1824       H  0.05646589  0.72421044  0.20848371     0.16500
C1825       C  0.24892341  0.85899409  0.95651297    -0.01700
C1826       C  0.25517329  0.85729316  0.92779569     0.06900
C1827       C  0.25636973  0.83091214  0.91496419    -0.07700
C1828       C  0.25004261  0.80657618  0.93001643     0.04300
C1829       C  0.24246379  0.80858142  0.95839411    -0.14900
C1830       C  0.24268685  0.83480592  0.97143607    -0.08200
C1831       C  0.25841607  0.88299024  0.91068961     0.05300
C1832       C  0.27991607  0.90187910  0.91700071    -0.09400
C1833       C  0.28227230  0.92730081  0.90270192     0.00300
C1834       C  0.26262580  0.93432676  0.88165915     0.00100
C1835       C  0.24127553  0.91518023  0.87531171    -0.12900
C1836       C  0.23915836  0.88970799  0.88938433     0.00600
C1837       C  0.30466611  0.94587867  0.91058159     0.39900
C1838       C  0.21675981  0.87099080  0.88179793     0.36500
C1839       C  0.24722386  0.88541976  0.97088601     0.36200
C1840       C  0.24959746  0.78021835  0.91549048     0.37000
N1841       N  0.32269579  0.96066000  0.91693370    -0.43800
N1842       N  0.19894030  0.85591363  0.87556114    -0.44200
N1843       N  0.24917206  0.75909374  0.90382382    -0.41600
N1844       N  0.24589219  0.90652731  0.98251594    -0.43000
H1845       H  0.23712206  0.83650529  0.99334376     0.13100
H1846       H  0.26132651  0.82946316  0.89291725     0.09600
H1847       H  0.29478180  0.89680427  0.93337700     0.10700
H1848       H  0.22636660  0.91986341  0.85886038     0.16500
C1849       C  0.29001529  0.41552443  0.88835948    -0.01700
C1850       C  0.26772507  0.39696703  0.88383231     0.06900
C1851       C  0.25150260  0.39965076  0.85961626    -0.07700
C1852       C  0.25707474  0.42059681  0.83991409     0.04300
C1853       C  0.27925389  0.43978119  0.84450829    -0.14900
C1854       C  0.29558184  0.43661258  0.86888821    -0.08200
C1855       C  0.25987951  0.37579257  0.90503054     0.05300
C1856       C  0.24060891  0.38331983  0.92564532    -0.09400
C1857       C  0.23246281  0.36430375  0.94622230     0.00300
C1858       C  0.24351123  0.33682900  0.94629729     0.00100
C1859       C  0.26330599  0.32948834  0.92585225    -0.12900
C1860       C  0.27144658  0.34872082  0.90523274     0.00600
C1861       C  0.21357251  0.37403452  0.96766599     0.39900
C1862       C  0.29157103  0.34034792  0.88440695     0.36500
C1863       C  0.30730364  0.41339760  0.91301655     0.36200
C1864       C  0.23976784  0.42139116  0.81519255     0.37000
N1865       N  0.19850910  0.38183740  0.98489143    -0.43800
N1866       N  0.30770323  0.33375960  0.86764895    -0.44200
N1867       N  0.22587689  0.42186981  0.79538384    -0.41600
N1868       N  0.32115509  0.41161104  0.93277343    -0.43000
H1869       H  0.31278249  0.45074132  0.87298458     0.13100
H1870       H  0.23427880  0.38534569  0.85618261     0.09600
H1871       H  0.23205861  0.40429758  0.92576359     0.10700
H1872       H  0.27207339  0.30861695  0.92570571     0.16500
C1873       C  0.27720444  0.41873078  0.12446800    -0.01700
C1874       C  0.26386366  0.39423286  0.13373466     0.06900
C1875       C  0.25723000  0.39126607  0.16213534    -0.07700
C1876       C  0.26352797  0.41248696  0.18124820     0.04300
C1877       C  0.27667757  0.43708861  0.17186224    -0.14900
C1878       C  0.28366444  0.43976918  0.14354022    -0.08200
C1879       C  0.25619689  0.37194737  0.11374052     0.05300
C1880       C  0.27746714  0.35772058  0.09945831    -0.09400
C1881       C  0.27113131  0.33876131  0.07814803     0.00300
C1882       C  0.24285740  0.33360698  0.07095912     0.00100
C1883       C  0.22162740  0.34734460  0.08603996    -0.12900
C1884       C  0.22805081  0.36633694  0.10721618     0.00600
C1885       C  0.29414930  0.32618163  0.06322872     0.39900
C1886       C  0.20544110  0.38066101  0.12118388     0.36500
C1887       C  0.28364413  0.42310381  0.09532807     0.36200
C1888       C  0.25750901  0.40804768  0.21045756     0.37000
N1889       N  0.31268321  0.31620492  0.05130701    -0.43800
N1890       N  0.18736313  0.39213989  0.13242945    -0.44200
N1891       N  0.25285729  0.40451306  0.23390473    -0.46400
N1892       N  0.28871309  0.42652619  0.07195427    -0.43000
H1893       H  0.29382449  0.45860903  0.13620601     0.13100
H1894       H  0.24722316  0.37230705  0.16933850     0.09600
H1895       H  0.29916181  0.36211935  0.10446232     0.10700
H1896       H  0.19981711  0.34351852  0.08108547     0.16500
C1897       C  0.12914774  0.27984754  0.12304713    -0.01700
C1898       C  0.11096327  0.25737686  0.12865507     0.06900
C1899       C  0.10423501  0.23894111  0.10688434    -0.07700
C1900       C  0.11633791  0.24157654  0.08039614     0.04300
C1901       C  0.13551011  0.26334656  0.07499330    -0.14900
C1902       C  0.14110656  0.28271333  0.09639629    -0.08200
C1903       C  0.09843886  0.25229284  0.15678161     0.05300
C1904       C  0.08037346  0.27219252  0.16856558    -0.09400
C1905       C  0.06415294  0.26580529  0.19219144     0.00300
C1906       C  0.06536459  0.23878778  0.20402224     0.00100
C1907       C  0.08519022  0.21978363  0.19356900    -0.12900
C1908       C  0.10187786  0.22642741  0.17048023     0.00600
C1909       C  0.04506357  0.28671344  0.20248796     0.39900
C1910       C  0.12201924  0.20612431  0.16080740     0.36500
C1911       C  0.13699483  0.29936466  0.14459956     0.36200
C1912       C  0.10854268  0.22164573  0.05918702     0.37000
N1913       N  0.02999596  0.30369930  0.21076270    -0.43800
N1914       N  0.13825978  0.18995582  0.15307917    -0.44200
N1915       N  0.10225371  0.20562204  0.04225277    -0.41600
N1916       N  0.14335828  0.31506807  0.16180508    -0.43000
H1917       H  0.15595687  0.29940324  0.09275277     0.13100
H1918       H  0.08964610  0.22207062  0.11076182     0.09600
H1919       H  0.07779478  0.29225035  0.15840866     0.10700
H1920       H  0.08689279  0.19919565  0.20282562     0.16500
C1921       C  0.10643864  0.22462116  0.84146331    -0.01700
C1922       C  0.09819772  0.24629713  0.85956460     0.06900
C1923       C  0.07529905  0.26308492  0.85230038    -0.07700
C1924       C  0.05932910  0.25730292  0.82841179     0.04300
C1925       C  0.06625626  0.23414933  0.81133735    -0.14900
C1926       C  0.09037997  0.21857994  0.81775392    -0.08200
C1927       C  0.11193993  0.25044891  0.88709174     0.05300
C1928       C  0.12843577  0.27414798  0.89155994    -0.09400
C1929       C  0.14248997  0.27811326  0.91698647     0.00300
C1930       C  0.13961682  0.25832450  0.93876685     0.00100
C1931       C  0.12266091  0.23483988  0.93429824    -0.12900
C1932       C  0.10884659  0.23081974  0.90881763     0.00600
C1933       C  0.16126340  0.30155503  0.91923943     0.39900
C1934       C  0.09158939  0.20636923  0.90537722     0.36500
C1935       C  0.13098731  0.20797375  0.84718667     0.36200
C1936       C  0.03482970  0.27423385  0.82330266     0.37000
N1937       N  0.17640978  0.32029947  0.92062234    -0.43800
N1938       N  0.07781809  0.18675789  0.90249065    -0.44200
N1939       N  0.01523322  0.28788877  0.81932752    -0.41600
N1940       N  0.15071967  0.19473186  0.85181195    -0.43000
H1941       H  0.09620948  0.20103481  0.80468901     0.13100
H1942       H  0.06910285  0.27995828  0.86606874     0.09600
H1943       H  0.13100183  0.28915518  0.87480665     0.10700
H1944       H  0.12036143  0.21943121  0.95072153     0.16500
C1945       C  0.27271006  0.17408056  0.91229435    -0.01700
C1946       C  0.27084321  0.14654309  0.92256456     0.06900
C1947       C  0.26227774  0.14204269  0.95008002    -0.07700
C1948       C  0.25372077  0.16422912  0.96684864     0.04300
C1949       C  0.25399559  0.19179428  0.95620530    -0.14900
C1950       C  0.26457145  0.19658392  0.92928657    -0.08200
C1951       C  0.27381257  0.12172924  0.90437136     0.05300
C1952       C  0.29640301  0.10339802  0.90833526    -0.09400
C1953       C  0.29749071  0.07770500  0.89430097     0.00300
C1954       C  0.27515583  0.06972217  0.87663972     0.00100
C1955       C  0.25282577  0.08840087  0.87250652    -0.12900
C1956       C  0.25210470  0.11422801  0.88595191     0.00600
C1957       C  0.32115361  0.05961213  0.89922649     0.39900
C1958       C  0.22839239  0.13235827  0.88121754     0.36500
C1959       C  0.28193949  0.17948500  0.88413712     0.36200
C1960       C  0.24404254  0.15788523  0.99473008     0.37000
N1961       N  0.34021239  0.04520395  0.90312996    -0.43800
N1962       N  0.20949719  0.14698678  0.87735281    -0.44200
N1963       N  0.23607313  0.15260716  0.01691780    -0.41600
N1964       N  0.28930426  0.18370638  0.86151965    -0.43000
H1965       H  0.26510674  0.21763938  0.92105436     0.13100
H1966       H  0.26088648  0.12089169  0.95801292     0.09600
H1967       H  0.31292328  0.10897646  0.92283484     0.10700
H1968       H  0.23582924  0.08286587  0.85853388     0.16500
C1969       C  0.58606623  0.88228556  0.28095802    -0.01700
C1970       C  0.60795386  0.87353177  0.26320300     0.06900
C1971       C  0.60895192  0.84553929  0.25458931    -0.07700
C1972       C  0.58834354  0.82649663  0.26295239     0.04300
C1973       C  0.56623880  0.83541303  0.28038462    -0.14900
C1974       C  0.56561117  0.86328053  0.28939179    -0.08200
C1975       C  0.62977026  0.89341522  0.25343625     0.05300
C1976       C  0.64607516  0.90758199  0.27321392    -0.09400
C1977       C  0.66505443  0.92832559  0.26517848     0.00300
C1978       C  0.66825398  0.93520767  0.23651385     0.00100
C1979       C  0.65273352  0.91989385  0.21670444    -0.12900
C1980       C  0.63370619  0.89927529  0.22486467     0.00600
C1981       C  0.68025615  0.94237772  0.28709665     0.39900
C1982       C  0.61774317  0.88516183  0.20351275     0.36500
C1983       C  0.58369414  0.91082389  0.29032011     0.36200
C1984       C  0.59105280  0.79776457  0.25435465     0.37000
N1985       N  0.69234902  0.95352453  0.30480683    -0.43800
N1986       N  0.60506562  0.87375457  0.18638915    -0.44200
N1987       N  0.59326095  0.77470166  0.24758544    -0.41600
N1988       N  0.58183045  0.93364324  0.29795617    -0.43000
H1989       H  0.54875741  0.87041186  0.30278041     0.13100
H1990       H  0.62601526  0.83851803  0.24142111     0.09600
H1991       H  0.64351537  0.90275445  0.29520039     0.10700
H1992       H  0.65494469  0.92435312  0.19461766     0.16500
C1993       C  0.65039151  0.10307262  0.26106707    -0.01700
C1994       C  0.62171922  0.09914928  0.25553682     0.06900
C1995       C  0.61273051  0.07478631  0.24229019    -0.07700
C1996       C  0.63188375  0.05439064  0.23416798     0.04300
C1997       C  0.66082435  0.05836443  0.23921014    -0.14900
C1998       C  0.66972368  0.08265117  0.25297203    -0.08200
C1999       C  0.60044854  0.11977994  0.26402046     0.05300
C2000       C  0.59814549  0.14492249  0.24926257    -0.09400
C2001       C  0.57751093  0.16451974  0.25618202     0.00300
C2002       C  0.55899446  0.15904658  0.27857292     0.00100
C2003       C  0.56137861  0.13355957  0.29300664    -0.12900
C2004       C  0.58173853  0.11400515  0.28587961     0.00600
C2005       C  0.57623910  0.19002049  0.24020128     0.39900
C2006       C  0.58316341  0.08822048  0.30143908     0.36500
C2007       C  0.66027187  0.12766516  0.27534719     0.36200
C2008       C  0.62104001  0.02929830  0.22145138     0.37000
N2009       N  0.57521140  0.21037005  0.22723835    -0.43800
N2010       N  0.58421424  0.06754338  0.31386427    -0.44200
N2011       N  0.61233882  0.00922377  0.21125460    -0.41600
N2012       N  0.66810167  0.14739371  0.28683421    -0.43000
H2013       H  0.69181916  0.08591285  0.25696669     0.13100
H2014       H  0.59057634  0.07168831  0.23840214     0.09600
H2015       H  0.61240395  0.14910607  0.23216189     0.10700
H2016       H  0.54718965  0.12872828  0.30998793     0.16500
C2017       C  0.71868375  0.11914743  0.12777921    -0.01700
C2018       C  0.74026408  0.12405272  0.10839547     0.06900
C2019       C  0.75691492  0.10174296  0.09944892    -0.07700
C2020       C  0.75292844  0.07484814  0.11000511     0.04300
C2021       C  0.73201866  0.06989294  0.13035689    -0.14900
C2022       C  0.71469372  0.09222743  0.13856374    -0.08200
C2023       C  0.74570269  0.15200399  0.09630856     0.05300
C2024       C  0.77008529  0.16631370  0.10405099    -0.09400
C2025       C  0.77860632  0.19022711  0.08952330     0.00300
C2026       C  0.76266517  0.19996851  0.06657425     0.00100
C2027       C  0.73711261  0.18683510  0.06043342    -0.12900
C2028       C  0.72870136  0.16289173  0.07487910     0.00600
C2029       C  0.80387715  0.20418447  0.09836081     0.39900
C2030       C  0.70368423  0.14859069  0.06596983     0.36500
C2031       C  0.70104373  0.14158656  0.13749393     0.36200
C2032       C  0.77050303  0.05278684  0.09929009     0.37000
N2033       N  0.82404126  0.21550827  0.10543250    -0.43800
N2034       N  0.68369991  0.13698721  0.05887236    -0.44200
N2035       N  0.78458688  0.03513779  0.09065398    -0.41600
N2036       N  0.68690896  0.15960718  0.14522857    -0.43000
H2037       H  0.69874742  0.08896020  0.15431908     0.13100
H2038       H  0.77314562  0.10541207  0.08405716     0.09600
H2039       H  0.78301365  0.15815782  0.12081615     0.10700
H2040       H  0.72458319  0.19409605  0.04302111     0.16500
C2041       C  0.76662416  0.83347484  0.10723097    -0.01700
C2042       C  0.74335335  0.85007286  0.09988417     0.06900
C2043       C  0.72458160  0.84034054  0.07960189    -0.07700
C2044       C  0.73007245  0.81572329  0.06486746     0.04300
C2045       C  0.75514027  0.80085971  0.07000024    -0.14900
C2046       C  0.77240704  0.80920949  0.09218911    -0.08200
C2047       C  0.74026800  0.87890289  0.11068456     0.05300
C2048       C  0.76205598  0.89789109  0.10581175    -0.09400
C2049       C  0.76095179  0.92497957  0.11646772     0.00300
C2050       C  0.73749410  0.93361314  0.13208506     0.00100
C2051       C  0.71497224  0.91511396  0.13563647    -0.12900
C2052       C  0.71621644  0.88787507  0.12515611     0.00600
C2053       C  0.78397177  0.94359504  0.11079532     0.39900
C2054       C  0.69319113  0.86919613  0.13057370     0.36500
C2055       C  0.78552910  0.84153575  0.12933458     0.36200
C2056       C  0.71075952  0.80767795  0.04316767     0.37000
N2057       N  0.80237078  0.95855951  0.10621427    -0.43800
N2058       N  0.67472648  0.85421438  0.13483138    -0.44200
N2059       N  0.69493516  0.80135192  0.02602569    -0.41600
N2060       N  0.80071141  0.84796251  0.14702711    -0.43000
H2061       H  0.79138006  0.79759802  0.09673578     0.13100
H2062       H  0.70649084  0.85287170  0.07406487     0.09600
H2063       H  0.78018799  0.89136715  0.09384828     0.10700
H2064       H  0.69690649  0.92150846  0.14776921     0.16500
C2065       C  0.82894704  0.90893446  0.25981961    -0.01700
C2066       C  0.85604089  0.92035635  0.25799823     0.06900
C2067       C  0.85942791  0.94831942  0.25072463    -0.07700
C2068       C  0.83643769  0.96466749  0.24355406     0.04300
C2069       C  0.80925539  0.95298046  0.24365190    -0.14900
C2070       C  0.80562118  0.92540104  0.25282220    -0.08200
C2071       C  0.88153790  0.90316093  0.26034968     0.05300
C2072       C  0.89525226  0.89559568  0.23569305    -0.09400
C2073       C  0.92068827  0.88123335  0.23639656     0.00300
C2074       C  0.93317574  0.87452090  0.26247191     0.00100
C2075       C  0.91905620  0.88216498  0.28718114    -0.12900
C2076       C  0.89344037  0.89628892  0.28627450     0.00600
C2077       C  0.93279329  0.87329667  0.20992443     0.39900
C2078       C  0.87988718  0.90379494  0.31212503     0.36500
C2079       C  0.82490734  0.88011645  0.26746409     0.36200
C2080       C  0.84163689  0.99321004  0.23541876     0.37000
N2081       N  0.94227363  0.86688418  0.18863776    -0.43800
N2082       N  0.86898946  0.90971087  0.33286342    -0.44200
N2083       N  0.84626157  0.01590535  0.22868410    -0.41600
N2084       N  0.82189251  0.85699143  0.27365587    -0.43000
H2085       H  0.78486478  0.91632229  0.25305444     0.13100
H2086       H  0.88031497  0.95708260  0.24957418     0.09600
H2087       H  0.88597049  0.90106723  0.21572306     0.10700
H2088       H  0.92796380  0.87711121  0.30739901     0.16500
C2089       C  0.88307358  0.12644027  0.27889235    -0.01700
C2090       C  0.87832017  0.10560469  0.25870739     0.06900
C2091       C  0.90075776  0.09612842  0.24234482    -0.07700
C2092       C  0.92752950  0.10761740  0.24526417     0.04300
C2093       C  0.93223532  0.12889159  0.26505407    -0.14900
C2094       C  0.90995292  0.13765612  0.28212561    -0.08200
C2095       C  0.85005297  0.09399705  0.25325664     0.05300
C2096       C  0.83712123  0.10002007  0.22767747    -0.09400
C2097       C  0.81262047  0.08628284  0.21952769     0.00300
C2098       C  0.80066204  0.06580546  0.23717381     0.00100
C2099       C  0.81240241  0.06161908  0.26384759    -0.12900
C2100       C  0.83706458  0.07527836  0.27184303     0.00600
C2101       C  0.80075165  0.09311648  0.19260841     0.39900
C2102       C  0.84982023  0.06812661  0.29823827     0.36500
C2103       C  0.86044197  0.13767573  0.29538340     0.36200
C2104       C  0.94986234  0.09697027  0.22800622     0.37000
N2105       N  0.79129852  0.09856191  0.17101724    -0.43800
N2106       N  0.86007717  0.06236037  0.31937150    -0.44200
N2107       N  0.96775543  0.08833393  0.21421798    -0.41600
N2108       N  0.84230421  0.14680292  0.30852481    -0.43000
H2109       H  0.91323492  0.15429643  0.29711742     0.13100
H2110       H  0.89720494  0.07991399  0.22695521     0.09600
H2111       H  0.84684007  0.11480382  0.21355453     0.10700
H2112       H  0.80365926  0.04597604  0.27765859     0.16500
C2113       C  0.39504048  0.84028597  0.25553874    -0.01700
C2114       C  0.39615703  0.86916466  0.26117974     0.06900
C2115       C  0.41978807  0.88027106  0.27436306    -0.07700
C2116       C  0.44209175  0.86318234  0.28222162     0.04300
C2117       C  0.44090504  0.83417652  0.27711241    -0.14900
C2118       C  0.41746403  0.82304168  0.26339807    -0.08200
C2119       C  0.37358231  0.88876820  0.25297791     0.05300
C2120       C  0.35943089  0.90363980  0.27387923    -0.09400
C2121       C  0.34080909  0.92525864  0.26715466     0.00300
C2122       C  0.33605567  0.93236909  0.23879038     0.00100
C2123       C  0.34974354  0.91661075  0.21797130    -0.12900
C2124       C  0.36846145  0.89526014  0.22479431     0.00600
C2125       C  0.32780513  0.94010390  0.28993837     0.39900
C2126       C  0.38335088  0.88141112  0.20251191     0.36500
C2127       C  0.37090161  0.82785845  0.24239650     0.36200
C2128       C  0.46637297  0.87615049  0.29464207     0.37000
N2129       N  0.31749783  0.95191764  0.30832814    -0.43800
N2130       N  0.39528268  0.87031888  0.18466328    -0.44200
N2131       N  0.48586103  0.88652500  0.30450869    -0.41600
N2132       N  0.35160108  0.81787474  0.23178435    -0.43000
H2133       H  0.41632176  0.80078540  0.25955580     0.13100
H2134       H  0.42092411  0.90253551  0.27823351     0.09600
H2135       H  0.36361133  0.89881282  0.29562918     0.10700
H2136       H  0.34648241  0.92136889  0.19606821     0.16500
C2137       C  0.40263287  0.14786752  0.24473474    -0.01700
C2138       C  0.39019189  0.12875462  0.26318268     0.06900
C2139       C  0.39775893  0.12883926  0.29137101    -0.07700
C2140       C  0.41852513  0.14674750  0.30127846     0.04300
C2141       C  0.43232799  0.16515288  0.28255233    -0.14900
C2142       C  0.42344102  0.16590755  0.25448147    -0.08200
C2143       C  0.37131576  0.10657315  0.25318841     0.05300
C2144       C  0.38290707  0.08449124  0.23795437    -0.09400
C2145       C  0.36662833  0.06159501  0.23019230     0.00300
C2146       C  0.33793577  0.06079442  0.23744862     0.00100
C2147       C  0.32639031  0.08317521  0.25258353    -0.12900
C2148       C  0.34285169  0.10588975  0.26058116     0.00600
C2149       C  0.38039160  0.03869452  0.21620869     0.39900
C2150       C  0.33016426  0.12826672  0.27629221     0.36500
C2151       C  0.39447323  0.14908896  0.21571506     0.36200
C2152       C  0.42528640  0.14504593  0.33064072     0.37000
N2153       N  0.39153495  0.02033285  0.20513797    -0.43800
N2154       N  0.32000589  0.14618696  0.28891349    -0.44200
N2155       N  0.43061563  0.14339288  0.35416640    -0.41600
N2156       N  0.38779966  0.15006835  0.19249749    -0.43000
H2157       H  0.43327315  0.18004173  0.23980881     0.13100
H2158       H  0.38800067  0.11410719  0.30553516     0.09600
H2159       H  0.40502405  0.08480025  0.23285693     0.10700
H2160       H  0.30439640  0.08300354  0.25814233     0.16500
C2161       C  0.27772763  0.88068195  0.13232315    -0.01700
C2162       C  0.25420197  0.87385026  0.11594406     0.06900
C2163       C  0.23367193  0.89420159  0.11099680    -0.07700
C2164       C  0.23632244  0.92114461  0.12192177     0.04300
C2165       C  0.26018433  0.92828683  0.13783591    -0.14900
C2166       C  0.28074318  0.90783012  0.14277410    -0.08200
C2167       C  0.25072310  0.84598612  0.10286349     0.05300
C2168       C  0.22813300  0.82919964  0.11095600    -0.09400
C2169       C  0.22143534  0.80495019  0.09606965     0.00300
C2170       C  0.23731393  0.79740725  0.07231763     0.00100
C2171       C  0.26120080  0.81309694  0.06564599    -0.12900
C2172       C  0.26788926  0.83728807  0.08056294     0.00600
C2173       C  0.19796754  0.78844909  0.10536163     0.39900
C2174       C  0.29121092  0.85395808  0.07125995     0.36500
C2175       C  0.29833580  0.85985759  0.13960235     0.36200
C2176       C  0.21443575  0.94113862  0.11615055     0.37000
N2177       N  0.17922530  0.77520159  0.11289928    -0.43800
N2178       N  0.30992611  0.86732189  0.06386718    -0.44200
N2179       N  0.19686532  0.95714990  0.11160725    -0.41600
N2180       N  0.31471698  0.84306272  0.14552582    -0.43000
H2181       H  0.29865950  0.91273882  0.15579452     0.13100
H2182       H  0.21553870  0.88901176  0.09838948     0.09600
H2183       H  0.21515878  0.83558580  0.12840028     0.10700
H2184       H  0.27355419  0.80766767  0.04744503     0.16500
C2185       C  0.28817192  0.11310620  0.12864141    -0.01700
C2186       C  0.26580727  0.12012916  0.11079518     0.06900
C2187       C  0.24670944  0.09940485  0.10286082    -0.07700
C2188       C  0.24867804  0.07231862  0.11353751     0.04300
C2189       C  0.27029028  0.06547301  0.13254705    -0.14900
C2190       C  0.29030225  0.08595016  0.13926057    -0.08200
C2191       C  0.26171011  0.14879958  0.09982154     0.05300
C2192       C  0.28104732  0.15961767  0.08068445    -0.09400
C2193       C  0.27510649  0.18400453  0.06562304     0.00300
C2194       C  0.24945388  0.19815220  0.07000604     0.00100
C2195       C  0.23138311  0.18856073  0.09104216    -0.12900
C2196       C  0.23713242  0.16400630  0.10569174     0.00600
C2197       C  0.29413943  0.19195687  0.04363308     0.39900
C2198       C  0.21669123  0.15401308  0.12548935     0.36500
C2199       C  0.30831030  0.13372206  0.13744172     0.36200
C2200       C  0.22826613  0.05206115  0.10451477     0.37000
N2201       N  0.30929611  0.19812522  0.02585286    -0.43800
N2202       N  0.20011195  0.14600905  0.14113712    -0.44200
N2203       N  0.21188324  0.03587220  0.09723425    -0.41600
N2204       N  0.32445245  0.15023194  0.14453013    -0.43000
H2205       H  0.30690243  0.08118567  0.15398583     0.13100
H2206       H  0.22991171  0.10457903  0.08848839     0.09600
H2207       H  0.29989776  0.14787979  0.07603180     0.10700
H2208       H  0.21172850  0.19928776  0.09476770     0.16500
C2209       C  0.11075626  0.89465126  0.28878757    -0.01700
C2210       C  0.12003203  0.90758819  0.26409555     0.06900
C2211       C  0.10233458  0.90868518  0.24076665    -0.07700
C2212       C  0.07606841  0.89603609  0.24127527     0.04300
C2213       C  0.06718056  0.88186635  0.26556974    -0.14900
C2214       C  0.08437890  0.88210280  0.28941545    -0.08200
C2215       C  0.14843092  0.91933221  0.26137671     0.05300
C2216       C  0.16656423  0.90750066  0.24158500    -0.09400
C2217       C  0.19176088  0.92053218  0.23482132     0.00300
C2218       C  0.19915494  0.94545725  0.24835426     0.00100
C2219       C  0.18197968  0.95635144  0.26939090    -0.12900
C2220       C  0.15651904  0.94362636  0.27583084     0.00600
C2221       C  0.20901025  0.90892672  0.21293820     0.39900
C2222       C  0.13807119  0.95714297  0.29549704     0.36500
C2223       C  0.12849136  0.89265617  0.31313597     0.36200
C2224       C  0.05885457  0.89776695  0.21651122     0.37000
N2225       N  0.22291131  0.89972226  0.19543374    -0.43800
N2226       N  0.12325750  0.96794915  0.31124821    -0.44200
N2227       N  0.04513607  0.89907249  0.19662192    -0.41600
N2228       N  0.14270226  0.89114070  0.33265934    -0.43000
H2229       H  0.07793207  0.87107612  0.30808057     0.13100
H2230       H  0.10934001  0.91906397  0.22189936     0.09600
H2231       H  0.16034074  0.88881494  0.23046012     0.10700
H2232       H  0.18744756  0.97596579  0.27925187     0.16500
C2233       C  0.15883851  0.06288794  0.27282883    -0.01700
C2234       C  0.15017976  0.08670733  0.25781167     0.06900
C2235       C  0.16803434  0.09794211  0.23743403    -0.07700
C2236       C  0.19295288  0.08441702  0.23013603     0.04300
C2237       C  0.20082298  0.05964396  0.24404113    -0.14900
C2238       C  0.18420500  0.04984816  0.26613780    -0.08200
C2239       C  0.12175630  0.09890618  0.26132269     0.05300
C2240       C  0.11376013  0.11004353  0.28718502    -0.09400
C2241       C  0.08759141  0.12288801  0.29064979     0.00300
C2242       C  0.06886926  0.12498306  0.26768755     0.00100
C2243       C  0.07666745  0.11275327  0.24215319    -0.12900
C2244       C  0.10266433  0.09977828  0.23885756     0.00600
C2245       C  0.08131533  0.13470305  0.31767335     0.39900
C2246       C  0.10924947  0.08738825  0.21216407     0.36500
C2247       C  0.14097452  0.05002090  0.29340956     0.36200
C2248       C  0.20955058  0.09576460  0.20765851     0.37000
N2249       N  0.07638619  0.14405933  0.33939880    -0.43800
N2250       N  0.11462133  0.07747122  0.19080230    -0.44200
N2251       N  0.22283658  0.10472073  0.18957754    -0.41600
N2252       N  0.12658772  0.03965324  0.30980954    -0.43000
H2253       H  0.18985154  0.03061009  0.27667529     0.13100
H2254       H  0.16173694  0.11657678  0.22619585     0.09600
H2255       H  0.12831862  0.10927741  0.30456720     0.10700
H2256       H  0.06258314  0.11373235  0.22440267     0.16500
loop_ 
_geom_bond_atom_site_label_1 
_geom_bond_atom_site_label_2 
_geom_bond_distance 
_geom_bond_site_symmetry_2 
_ccdc_geom_bond_type 
Fe1          O17   2.047   1_545  S
Fe1           O7   2.058   1_545  S
Fe1          O14   2.066       .  S
Fe1           O6   2.047       .  S
Fe1          O12   1.954   1_545  S
Fe2           O5   2.038       .  S
Fe2           O9   2.085       .  S
Fe2          O13   2.056   1_565  S
Fe2          O18   2.071   1_565  S
Fe2          O12   1.958       .  S
Fe3          O21   2.089       .  S
Fe3           O8   2.054   1_565  S
Fe3          O15   2.052       .  S
Fe3           O4   2.089   1_565  S
Fe3          O12   1.964       .  S
O4           C11   1.273       .  A
O5           C19   1.265       .  A
O6           C11   1.266       .  A
O7           C10   1.268       .  A
O8           C20   1.270       .  A
O9           C22   1.274       .  A
C10          O15   1.267       .  A
C10        C2218   1.457       .  S
C11        C2237   1.478       .  S
O13          C16   1.265       .  A
O14          C16   1.267       .  A
C16        C2189   1.485       .  S
O17          C22   1.267       .  A
O18          C20   1.272       .  A
C19          O21   1.272       .  A
C19        C2122   1.494       .  S
C20        C2146   1.481       .  S
C22        C2165   1.483       .  S
Fe23         O39   2.062       .  S
Fe23         O29   2.049       .  S
Fe23         O36   2.049   1_545  S
Fe23         O28   2.047   1_545  S
Fe23         O34   1.950       .  S
Fe24         O27   2.047       .  S
Fe24         O31   2.069       .  S
Fe24         O35   2.076   1_545  S
Fe24         O40   2.057   1_545  S
Fe24         O34   1.957       .  S
Fe25         O43   2.069       .  S
Fe25         O30   2.087   1_545  S
Fe25         O37   2.093       .  S
Fe25         O26   2.074   1_545  S
Fe25         O34   1.959       .  S
O26          C33   1.269       .  A
O27          C41   1.265       .  A
O28          C33   1.265       .  A
O29          C32   1.270       .  A
O30          C42   1.275       .  A
O31          C44   1.268       .  A
C32          O37   1.277       .  A
C32        C2098   1.489       .  S
C33        C2069   1.475       .  S
O35          C38   1.271       .  A
O36          C38   1.268       .  A
C38        C2050   1.476       .  S
O39          C44   1.266       .  A
O40          C42   1.271       .  A
C41          O43   1.270       .  A
C41        C1997   1.477       .  S
C42        C1978   1.498       .  S
C44        C2021   1.488       .  S
Fe45         O61   2.057   1_554  S
Fe45         O51   2.050   1_554  S
Fe45         O58   2.062       .  S
Fe45         O50   2.043       .  S
Fe45         O56   1.966       .  S
Fe46         O49   2.048   1_554  S
Fe46         O53   2.082   1_554  S
Fe46         O57   2.068       .  S
Fe46         O62   2.056       .  S
Fe46         O56   1.970       .  S
Fe47         O65   2.090   1_554  S
Fe47         O52   2.071       .  S
Fe47         O59   2.078   1_554  S
Fe47         O48   2.088       .  S
Fe47         O56   1.979       .  S
O48          C55   1.274       .  A
O49          C63   1.266       .  A
O50          C55   1.268       .  A
O51          C54   1.266       .  A
O52          C64   1.272       .  A
O53          C66   1.273       .  A
C54          O59   1.271       .  A
C54        C1949   1.479       .  S
C55        C2194   1.483       .  S
O57          C60   1.265       .  A
O58          C60   1.265       .  A
C60        C1901   1.491       .  S
O61          C66   1.269       .  A
O62          C64   1.269       .  A
C63          O65   1.273       .  A
C63        C1858   1.488       .  S
C64        C1882   1.487       .  S
C66        C1930   1.485       .  S
Fe67         O83   2.065       .  S
Fe67         O73   2.048       .  S
Fe67         O80   2.042   1_554  S
Fe67         O72   2.059   1_554  S
Fe67         O78   1.944       .  S
Fe68         O71   2.069       .  S
Fe68         O75   2.064       .  S
Fe68         O79   2.091   1_554  S
Fe68         O84   2.056   1_554  S
Fe68         O78   1.948       .  S
Fe69         O87   2.065       .  S
Fe69         O74   2.090   1_554  S
Fe69         O81   2.096       .  S
Fe69         O70   2.075   1_554  S
Fe69         O78   1.948       .  S
O70          C77   1.270       .  A
O71          C85   1.271       .  A
O72          C77   1.268       .  A
O73          C76   1.269       .  A
O74          C86   1.275       .  A
O75          C88   1.265       .  A
C76          O81   1.277       .  A
C76        C2170   1.483       .  S
C77        C1829   1.478       .  S
O79          C82   1.276       .  A
O80          C82   1.268       .  A
C82        C1786   1.488       .  S
O83          C88   1.266       .  A
O84          C86   1.270       .  A
C85          O87   1.271       .  A
C85        C1733   1.490       .  S
C86        C1757   1.487       .  S
C88        C1805   1.478       .  S
Fe89        O105   2.075       .  S
Fe89         O95   2.052       .  S
Fe89        O102   2.049   1_455  S
Fe89         O94   2.071   1_455  S
Fe89        O100   1.943       .  S
Fe90         O93   2.064       .  S
Fe90         O97   2.066       .  S
Fe90        O101   2.078   1_455  S
Fe90        O106   2.062   1_455  S
Fe90        O100   1.951       .  S
Fe91        O109   2.060       .  S
Fe91         O96   2.094   1_455  S
Fe91        O103   2.095       .  S
Fe91         O92   2.064   1_455  S
Fe91        O100   1.949       .  S
O92          C99   1.270       .  A
O93         C107   1.271       .  A
O94          C99   1.272       .  A
O95          C98   1.268       .  A
O96         C108   1.275       .  A
O97         C110   1.267       .  A
C98         O103   1.274       .  A
C98        C1925   1.486       .  S
C99        C1709   1.473       .  S
O101        C104   1.272       .  A
O102        C104   1.268       .  A
C104       C1661   1.488       .  S
O105        C110   1.271       .  A
O106        C108   1.269       .  A
C107        O109   1.271       .  A
C107       C1637   1.481       .  S
C108       C1618   1.489       .  S
C110       C1685   1.490       .  S
Fe111       O127   2.069   1_455  S
Fe111       O117   2.052   1_455  S
Fe111       O124   2.056       .  S
Fe111       O116   2.056       .  S
Fe111       O122   1.974       .  S
Fe112       O115   2.046   1_455  S
Fe112       O119   2.063   1_455  S
Fe112       O123   2.064       .  S
Fe112       O128   2.050       .  S
Fe112       O122   1.981       .  S
Fe113       O131   2.096   1_455  S
Fe113       O118   2.083       .  S
Fe113       O125   2.085   1_455  S
Fe113       O114   2.093       .  S
Fe113       O122   1.985       .  S
O114        C121   1.274       .  A
O115        C129   1.266       .  A
O116        C121   1.269       .  A
O117        C120   1.268       .  A
O118        C130   1.273       .  A
O119        C132   1.267       .  A
C120        O125   1.272       .  A
C120       C1589   1.492       .  S
C121       C1906   1.490       .  S
O123        C126   1.265       .  A
O124        C126   1.266       .  A
C126       C2242   1.491       .  S
O127        C132   1.269       .  A
O128        C130   1.268       .  A
C129        O131   1.274       .  A
C129       C1541   1.500       .  S
C130       C1570   1.491       .  S
C132       C2093   1.481       .  S
Fe133       O149   2.041       .  S
Fe133       O139   2.058       .  S
Fe133       O146   2.062   1_455  S
Fe133       O138   2.043   1_455  S
Fe133       O144   1.960       .  S
Fe134       O137   2.043       .  S
Fe134       O141   2.073       .  S
Fe134       O145   2.048   1_455  S
Fe134       O150   2.059   1_455  S
Fe134       O144   1.968       .  S
Fe135       O153   2.091       .  S
Fe135       O140   2.067   1_455  S
Fe135       O147   2.068       .  S
Fe135       O136   2.092   1_455  S
Fe135       O144   1.971       .  S
O136        C143   1.274       .  A
O137        C151   1.264       .  A
O138        C143   1.266       .  A
O139        C142   1.268       .  A
O140        C152   1.270       .  A
O141        C154   1.271       .  A
C142        O147   1.269       .  A
C142       C1810   1.478       .  S
C143       C1517   1.475       .  S
O145        C148   1.264       .  A
O146        C148   1.265       .  A
C148       C2074   1.489       .  S
O149        C154   1.266       .  A
O150        C152   1.270       .  A
C151        O153   1.275       .  A
C151       C1469   1.497       .  S
C152       C1498   1.489       .  S
C154       C2213   1.477       .  S
Fe155       O171   2.047   1_554  S
Fe155       O161   2.047   1_554  S
Fe155       O168   2.060       .  S
Fe155       O160   2.045       .  S
Fe155       O166   1.962       .  S
Fe156       O159   2.052   1_554  S
Fe156       O163   2.081   1_554  S
Fe156       O167   2.070       .  S
Fe156       O172   2.065       .  S
Fe156       O166   1.976       .  S
Fe157       O175   2.070   1_554  S
Fe157       O162   2.069       .  S
Fe157       O169   2.071   1_554  S
Fe157       O158   2.079       .  S
Fe157       O166   1.980       .  S
O158        C165   1.271       .  A
O159        C173   1.266       .  A
O160        C165   1.268       .  A
O161        C164   1.266       .  A
O162        C174   1.271       .  A
O163        C176   1.270       .  A
C164        O169   1.269       .  A
C164       C1450   1.479       .  S
C165       C2045   1.478       .  S
O167        C170   1.267       .  A
O168        C170   1.267       .  A
C170       C1522   1.497       .  S
O171        C176   1.265       .  A
O172        C174   1.271       .  A
C173        O175   1.270       .  A
C173       C1373   1.481       .  S
C174       C1397   1.488       .  S
C176       C1421   1.472       .  S
Fe177       O193   2.065       .  S
Fe177       O183   2.059       .  S
Fe177       O190   2.061   1_545  S
Fe177       O182   2.057   1_545  S
Fe177       O188   1.956   1_545  S
Fe178       O181   2.062   1_565  S
Fe178       O185   2.062   1_565  S
Fe178       O189   2.073       .  S
Fe178       O194   2.049       .  S
Fe178       O188   1.969       .  S
Fe179       O197   2.068   1_565  S
Fe179       O184   2.077       .  S
Fe179       O191   2.073   1_565  S
Fe179       O180   2.077       .  S
Fe179       O188   1.965       .  S
O180        C187   1.271       .  A
O181        C195   1.269       .  A
O182        C187   1.268       .  A
O183        C186   1.270       .  A
O184        C196   1.271       .  A
O185        C198   1.266       .  A
C186        O191   1.270       .  A
C186       C1690   1.485       .  S
C187       C1349   1.479       .  S
O189        C192   1.270       .  A
O190        C192   1.270       .  A
C192       C1834   1.489       .  S
O193        C198   1.269       .  A
O194        C196   1.267       .  A
C195        O197   1.270       .  A
C195       C1301   1.472       .  S
C196       C1325   1.489       .  S
C198       C1954   1.484       .  S
Fe199       O215   2.074       .  S
Fe199       O205   2.050       .  S
Fe199       O212   2.045   1_655  S
Fe199       O204   2.054   1_655  S
Fe199       O210   1.945       .  S
Fe200       O203   2.071   1_455  S
Fe200       O207   2.052   1_455  S
Fe200       O211   2.088       .  S
Fe200       O216   2.041       .  S
Fe200       O210   1.947   1_455  S
Fe201       O219   2.063       .  S
Fe201       O206   2.098   1_655  S
Fe201       O213   2.092       .  S
Fe201       O202   2.074   1_655  S
Fe201       O210   1.948       .  S
O202        C209   1.271       .  A
O203        C217   1.271       .  A
O204        C209   1.267       .  A
O205        C208   1.271       .  A
O206        C218   1.277       .  A
O207        C220   1.265       .  A
C208        O213   1.276       .  A
C208       C1426   1.489       .  S
C209       C1781   1.478       .  S
O211        C214   1.275       .  A
O212        C214   1.267       .  A
C214       C1354   1.488       .  S
O215        C220   1.268       .  A
O216        C218   1.267       .  A
C217        O219   1.270       .  A
C217       C1229   1.483       .  S
C218       C1253   1.479       .  S
C220       C1277   1.479       .  S
Fe221       O237   2.075       .  S
Fe221       O227   2.055       .  S
Fe221       O234   2.050   1_554  S
Fe221       O226   2.062   1_554  S
Fe221       O232   1.959       .  S
Fe222       O225   2.054       .  S
Fe222       O229   2.062       .  S
Fe222       O233   2.077   1_554  S
Fe222       O238   2.050   1_554  S
Fe222       O232   1.965       .  S
Fe223       O241   2.070       .  S
Fe223       O228   2.096   1_554  S
Fe223       O235   2.085       .  S
Fe223       O224   2.073   1_554  S
Fe223       O232   1.970       .  S
O224        C231   1.271       .  A
O225        C239   1.267       .  A
O226        C231   1.268       .  A
O227        C230   1.269       .  A
O228        C240   1.276       .  A
O229        C242   1.266       .  A
C230        O235   1.274       .  A
C230       C2026   1.486       .  S
C231       C1210   1.475       .  S
O233        C236   1.269       .  A
O234        C236   1.267       .  A
C236       C1714   1.493       .  S
O237        C242   1.269       .  A
O238        C240   1.268       .  A
C239        O241   1.270       .  A
C239       C1162   1.479       .  S
C240       C1181   1.492       .  S
C242       C1594   1.478       .  S
Fe243       O259   2.072       .  S
Fe243       O249   2.047       .  S
Fe243       O256   2.053   1_565  S
Fe243       O248   2.058   1_565  S
Fe243       O254   1.947       .  S
Fe244       O247   2.055   1_545  S
Fe244       O251   2.050   1_545  S
Fe244       O255   2.074       .  S
Fe244       O260   2.035       .  S
Fe244       O254   1.949   1_545  S
Fe245       O263   2.079       .  S
Fe245       O250   2.103   1_565  S
Fe245       O257   2.096       .  S
Fe245       O246   2.077   1_565  S
Fe245       O254   1.957       .  S
O246        C253   1.272       .  A
O247        C261   1.266       .  A
O248        C253   1.268       .  A
O249        C252   1.269       .  A
O250        C262   1.277       .  A
O251        C264   1.264       .  A
C252        O257   1.277       .  A
C252       C1282   1.490       .  S
C253       C1666   1.478       .  S
O255        C258   1.270       .  A
O256        C258   1.268       .  A
C258       C1205   1.478       .  S
O259        C264   1.269       .  A
O260        C262   1.266       .  A
C261        O263   1.273       .  A
C261       C1109   1.493       .  S
C262       C1138   1.491       .  S
C264       C1445   1.475       .  S
Fe265       O281   2.047       .  S
Fe265       O271   2.047       .  S
Fe265       O278   2.052       .  S
Fe265       O270   2.040       .  S
Fe265       O276   1.970       .  S
Fe266       O269   2.038       .  S
Fe266       O273   2.073       .  S
Fe266       O277   2.060       .  S
Fe266       O282   2.052       .  S
Fe266       O276   1.978       .  S
Fe267       O285   2.073       .  S
Fe267       O272   2.068       .  S
Fe267       O279   2.068       .  S
Fe267       O268   2.070       .  S
Fe267       O276   1.984       .  S
O268        C275   1.269       .  A
O269        C283   1.265       .  A
O270        C275   1.264       .  A
O271        C274   1.267       .  A
O272        C284   1.271       .  A
O273        C286   1.268       .  A
C274        O279   1.270       .  A
C274       C1066   1.471       .  S
C275       C1090   1.473       .  S
O277        C280   1.266       .  A
O278        C280   1.265       .  A
C280       C1037   1.477       .  S
O281        C286   1.265       .  A
O282        C284   1.266       .  A
C283        O285   1.269       .  A
C283       C2002   1.483       .  S
C284       C2141   1.490       .  S
C286       C1013   1.482       .  S
Fe287       O303   2.057       .  S
Fe287       O293   2.060       .  S
Fe287       O300   2.060       .  S
Fe287       O292   2.049       .  S
Fe287       O298   1.973       .  S
Fe288       O291   2.036       .  S
Fe288       O295   2.057       .  S
Fe288       O299   2.053       .  S
Fe288       O304   2.046       .  S
Fe288       O298   1.983       .  S
Fe289       O307   2.092       .  S
Fe289       O294   2.072       .  S
Fe289       O301   2.074       .  S
Fe289       O290   2.082       .  S
Fe289       O298   1.985       .  S
O290        C297   1.272       .  A
O291        C305   1.263       .  A
O292        C297   1.267       .  A
O293        C296   1.269       .  A
O294        C306   1.270       .  A
O295        C308   1.265       .  A
C296        O301   1.270       .  A
C296        C965   1.479       .  S
C297        C989   1.481       .  S
O299        C302   1.265       .  A
O300        C302   1.268       .  A
C302       C1085   1.478       .  S
O303        C308   1.266       .  A
O304        C306   1.265       .  A
C305        O307   1.275       .  A
C305       C1738   1.494       .  S
C306       C1877   1.474       .  S
C308        C941   1.475       .  S
Fe309       O325   2.045       .  S
Fe309       O315   2.056       .  S
Fe309       O322   2.068       .  S
Fe309       O314   2.044       .  S
Fe309       O320   1.957       .  S
Fe310       O313   2.037       .  S
Fe310       O317   2.079       .  S
Fe310       O321   2.057       .  S
Fe310       O326   2.066       .  S
Fe310       O320   1.969       .  S
Fe311       O329   2.083       .  S
Fe311       O316   2.071       .  S
Fe311       O323   2.081       .  S
Fe311       O312   2.084       .  S
Fe311       O320   1.974       .  S
O312        C319   1.272       .  A
O313        C327   1.263       .  A
O314        C319   1.267       .  A
O315        C318   1.269       .  A
O316        C328   1.272       .  A
O317        C330   1.272       .  A
C318        O323   1.272       .  A
C318        C917   1.487       .  S
C319       C1042   1.487       .  S
O321        C324   1.265       .  A
O322        C324   1.268       .  A
C324        C994   1.488       .  S
O325        C330   1.266       .  A
O326        C328   1.271       .  A
C327        O329   1.273       .  A
C327       C1642   1.492       .  S
C328       C1565   1.485       .  S
C330        C893   1.485       .  S
Fe331       O347   2.071       .  S
Fe331       O337   2.036       .  S
Fe331       O344   2.036       .  S
Fe331       O336   2.062       .  S
Fe331       O342   1.955       .  S
Fe332       O335   2.070       .  S
Fe332       O339   2.064       .  S
Fe332       O343   2.086       .  S
Fe332       O348   2.050       .  S
Fe332       O342   1.965       .  S
Fe333       O351   2.061       .  S
Fe333       O338   2.084       .  S
Fe333       O345   2.082       .  S
Fe333       O334   2.065       .  S
Fe333       O342   1.971       .  S
O334        C341   1.270       .  A
O335        C349   1.272       .  A
O336        C341   1.269       .  A
O337        C340   1.266       .  A
O338        C350   1.273       .  A
O339        C352   1.267       .  A
C340        O345   1.272       .  A
C340        C850   1.485       .  S
C341        C869   1.473       .  S
O343        C346   1.271       .  A
O344        C346   1.265       .  A
C346        C826   1.488       .  S
O347        C352   1.270       .  A
O348        C350   1.267       .  A
C349        O351   1.269       .  A
C349       C1474   1.489       .  S
C350       C1258   1.480       .  S
C352        C970   1.491       .  S
Fe353       O369   2.066       .  S
Fe353       O359   2.058       .  S
Fe353       O366   2.054       .  S
Fe353       O358   2.053       .  S
Fe353       O364   1.952       .  S
Fe354       O357   2.079       .  S
Fe354       O361   2.053       .  S
Fe354       O365   2.097       .  S
Fe354       O370   2.051       .  S
Fe354       O364   1.960       .  S
Fe355       O373   2.070       .  S
Fe355       O360   2.084       .  S
Fe355       O367   2.082       .  S
Fe355       O356   2.078       .  S
Fe355       O364   1.962       .  S
O356        C363   1.272       .  A
O357        C371   1.274       .  A
O358        C363   1.268       .  A
O359        C362   1.270       .  A
O360        C372   1.273       .  A
O361        C374   1.264       .  A
C362        O367   1.273       .  A
C362        C898   1.478       .  S
C363        C821   1.480       .  S
O365        C368   1.275       .  A
O366        C368   1.270       .  A
C368        C797   1.485       .  S
O369        C374   1.266       .  A
O370        C372   1.267       .  A
C371        O373   1.272       .  A
C371       C1853   1.500       .  S
C372       C1762   1.484       .  S
C374        C778   1.478       .  S
Fe375       O391   2.054       .  S
Fe375       O381   2.049       .  S
Fe375       O388   2.046       .  S
Fe375       O380   2.048       .  S
Fe375       O386   1.973       .  S
Fe376       O379   2.044       .  S
Fe376       O383   2.060       .  S
Fe376       O387   2.063       .  S
Fe376       O392   2.050       .  S
Fe376       O386   1.979       .  S
Fe377       O395   2.076       .  S
Fe377       O382   2.077       .  S
Fe377       O389   2.072       .  S
Fe377       O378   2.072       .  S
Fe377       O386   1.982       .  S
O378        C385   1.269       .  A
O379        C393   1.265       .  A
O380        C385   1.266       .  A
O381        C384   1.268       .  A
O382        C394   1.271       .  A
O383        C396   1.266       .  A
C384        O389   1.271       .  A
C384        C946   1.478       .  S
C385        C749   1.479       .  S
O387        C390   1.267       .  A
O388        C390   1.266       .  A
C390        C725   1.478       .  S
O391        C396   1.265       .  A
O392        C394   1.267       .  A
C393        O395   1.270       .  A
C393       C2117   1.477       .  S
C394       C1973   1.482       .  S
C396        C845   1.476       .  S
Fe397       O413   2.047       .  S
Fe397       O403   2.054       .  S
Fe397       O410   2.056       .  S
Fe397       O402   2.041       .  S
Fe397       O408   1.971       .  S
Fe398       O401   2.048       .  S
Fe398       O405   2.063       .  S
Fe398       O409   2.063       .  S
Fe398       O414   2.049       .  S
Fe398       O408   1.978       .  S
Fe399       O417   2.085       .  S
Fe399       O404   2.076       .  S
Fe399       O411   2.075       .  S
Fe399       O400   2.086       .  S
Fe399       O408   1.981       .  S
O400        C407   1.273       .  A
O401        C415   1.268       .  A
O402        C407   1.266       .  A
O403        C406   1.268       .  A
O404        C416   1.270       .  A
O405        C418   1.266       .  A
C406        O411   1.270       .  A
C406        C677   1.479       .  S
C407        C701   1.482       .  S
O409        C412   1.267       .  A
O410        C412   1.266       .  A
C412        C754   1.477       .  S
O413        C418   1.264       .  A
O414        C416   1.266       .  A
C415        O417   1.274       .  A
C415       C1157   1.488       .  S
C416       C1402   1.491       .  S
C418       C1061   1.477       .  S
Fe419       O435   2.045       .  S
Fe419       O425   2.065       .  S
Fe419       O432   2.082       .  S
Fe419       O424   2.048       .  S
Fe419       O430   1.954       .  S
Fe420       O423   2.041       .  S
Fe420       O427   2.090       .  S
Fe420       O431   2.055       .  S
Fe420       O436   2.063       .  S
Fe420       O430   1.966       .  S
Fe421       O439   2.086       .  S
Fe421       O426   2.068       .  S
Fe421       O433   2.067       .  S
Fe421       O422   2.076       .  S
Fe421       O430   1.967       .  S
O422        C429   1.274       .  A
O423        C437   1.266       .  A
O424        C429   1.269       .  A
O425        C428   1.268       .  A
O426        C438   1.269       .  A
O427        C440   1.272       .  A
C428        O433   1.268       .  A
C428        C653   1.480       .  S
C429        C730   1.474       .  S
O431        C434   1.265       .  A
O432        C434   1.270       .  A
C434        C706   1.485       .  S
O435        C440   1.266       .  A
O436        C438   1.268       .  A
C437        O439   1.275       .  A
C437       C1234   1.491       .  S
C438       C1493   1.485       .  S
C440        C634   1.480       .  S
Fe441       O457   2.038       .  S
Fe441       O447   2.066       .  S
Fe441       O454   2.074       .  S
Fe441       O446   2.045       .  S
Fe441       O452   1.950       .  S
Fe442       O445   2.040       .  S
Fe442       O449   2.091       .  S
Fe442       O453   2.054       .  S
Fe442       O458   2.077       .  S
Fe442       O452   1.961       .  S
Fe443       O461   2.090       .  S
Fe443       O448   2.073       .  S
Fe443       O455   2.082       .  S
Fe443       O444   2.082       .  S
Fe443       O452   1.960       .  S
O444        C451   1.272       .  A
O445        C459   1.263       .  A
O446        C451   1.268       .  A
O447        C450   1.269       .  A
O448        C460   1.274       .  A
O449        C462   1.274       .  A
C450        O455   1.274       .  A
C450        C629   1.486       .  S
C451        C605   1.478       .  S
O453        C456   1.263       .  A
O454        C456   1.268       .  A
C456        C562   1.481       .  S
O457        C462   1.265       .  A
O458        C460   1.274       .  A
C459        O461   1.274       .  A
C459       C1378   1.482       .  S
C460       C1186   1.485       .  S
C462        C586   1.470       .  S
Fe463       O479   2.066       .  S
Fe463       O469   2.051       .  S
Fe463       O476   2.052       .  S
Fe463       O468   2.057       .  S
Fe463       O474   1.961       .  S
Fe464       O467   2.049       .  S
Fe464       O471   2.067       .  S
Fe464       O475   2.072       .  S
Fe464       O480   2.048       .  S
Fe464       O474   1.971       .  S
Fe465       O483   2.081       .  S
Fe465       O470   2.078       .  S
Fe465       O477   2.078       .  S
Fe465       O466   2.078       .  S
Fe465       O474   1.975       .  S
O466        C473   1.272       .  A
O467        C481   1.268       .  A
O468        C473   1.267       .  A
O469        C472   1.269       .  A
O470        C482   1.271       .  A
O471        C484   1.266       .  A
C472        O477   1.272       .  A
C472        C581   1.489       .  S
C473        C802   1.489       .  S
O475        C478   1.269       .  A
O476        C478   1.268       .  A
C478        C874   1.485       .  S
O479        C484   1.268       .  A
O480        C482   1.267       .  A
C481        O483   1.273       .  A
C481       C1114   1.489       .  S
C482       C1330   1.485       .  S
C484        C658   1.487       .  S
Fe485       O501   2.062       .  S
Fe485       O491   2.040       .  S
Fe485       O498   2.053       .  S
Fe485       O490   2.049       .  S
Fe485       O496   1.975       .  S
Fe486       O489   2.041       .  S
Fe486       O493   2.074       .  S
Fe486       O497   2.069       .  S
Fe486       O502   2.056       .  S
Fe486       O496   1.979       .  S
Fe487       O505   2.085       .  S
Fe487       O492   2.078       .  S
Fe487       O499   2.076       .  S
Fe487       O488   2.081       .  S
Fe487       O496   1.987       .  S
O488        C495   1.271       .  A
O489        C503   1.265       .  A
O490        C495   1.268       .  A
O491        C494   1.266       .  A
O492        C504   1.272       .  A
O493        C506   1.269       .  A
C494        O499   1.272       .  A
C494        C773   1.478       .  S
C495        C557   1.486       .  S
O497        C500   1.267       .  A
O498        C500   1.265       .  A
C500        C538   1.481       .  S
O501        C506   1.266       .  A
O502        C504   1.269       .  A
C503        O505   1.271       .  A
C503       C1306   1.492       .  S
C504       C1133   1.484       .  S
C506        C922   1.477       .  S
Fe507       O523   2.054       .  S
Fe507       O513   2.053       .  S
Fe507       O520   2.047       .  S
Fe507       O512   2.052       .  S
Fe507       O518   1.966       .  S
Fe508       O511   2.062       .  S
Fe508       O515   2.071       .  S
Fe508       O519   2.067       .  S
Fe508       O524   2.063       .  S
Fe508       O518   1.975       .  S
Fe509       O527   2.081       .  S
Fe509       O514   2.086       .  S
Fe509       O521   2.080       .  S
Fe509       O510   2.082       .  S
Fe509       O518   1.974       .  S
O510        C517   1.273       .  A
O511        C525   1.269       .  A
O512        C517   1.267       .  A
O513        C516   1.268       .  A
O514        C526   1.273       .  A
O515        C528   1.269       .  A
C516        O521   1.272       .  A
C516       C1018   1.485       .  S
C517        C533   1.481       .  S
O519        C522   1.269       .  A
O520        C522   1.266       .  A
C522        C610   1.479       .  S
O523        C528   1.266       .  A
O524        C526   1.268       .  A
C525        O527   1.273       .  A
C525       C1546   1.488       .  S
C526       C1613   1.488       .  S
C528        C682   1.486       .  S
C529        C530   1.413       .  A
C529        C534   1.404       .  A
C529        C543   1.443       .  S
C530        C535   1.491       .  S
C530        C531   1.404       .  A
C531        C532   1.398       .  A
C531        H550   1.084       .  S
C532        C533   1.413       .  A
C532        C544   1.444       .  S
C533        C534   1.405       .  A
C534        H549   1.083       .  S
C535        C536   1.403       .  A
C535        C540   1.414       .  A
C536        C537   1.402       .  A
C536        H551   1.085       .  S
C537        C538   1.415       .  A
C537        C541   1.444       .  S
C538        C539   1.403       .  A
C539        C540   1.400       .  A
C539        H552   1.085       .  S
C540        C542   1.445       .  S
C541        N545   1.157       .  T
C542        N546   1.157       .  T
C543        N548   1.157       .  T
C544        N547   1.157       .  T
C553        C554   1.409       .  A
C553        C558   1.396       .  A
C553        C567   1.445       .  S
C554        C559   1.486       .  S
C554        C555   1.404       .  A
C555        C556   1.406       .  A
C555        H574   1.085       .  S
C556        C557   1.417       .  A
C556        C568   1.444       .  S
C557        C558   1.405       .  A
C558        H573   1.085       .  S
C559        C560   1.404       .  A
C559        C564   1.409       .  A
C560        C561   1.400       .  A
C560        H575   1.085       .  S
C561        C562   1.411       .  A
C561        C565   1.444       .  S
C562        C563   1.407       .  A
C563        C564   1.403       .  A
C563        H576   1.085       .  S
C564        C566   1.444       .  S
C565        N569   1.157       .  T
C566        N570   1.157       .  T
C567        N572   1.157       .  T
C568        N571   1.157       .  T
C577        C578   1.411       .  A
C577        C582   1.398       .  A
C577        C591   1.445       .  S
C578        C583   1.486       .  S
C578        C579   1.401       .  A
C579        C580   1.401       .  A
C579        H598   1.085       .  S
C580        C581   1.419       .  A
C580        C592   1.444       .  S
C581        C582   1.407       .  A
C582        H597   1.085       .  S
C583        C584   1.400       .  A
C583        C588   1.416       .  A
C584        C585   1.395       .  A
C584        H599   1.085       .  S
C585        C586   1.412       .  A
C585        C589   1.445       .  S
C586        C587   1.400       .  A
C587        C588   1.404       .  A
C587        H600   1.085       .  S
C588        C590   1.444       .  S
C589        N593   1.157       .  T
C590        N594   1.157       .  T
C591        N596   1.157       .  T
C592        N595   1.157       .  T
C601        C602   1.410       .  A
C601        C606   1.397       .  A
C601        C615   1.444       .  S
C602        C607   1.480       .  S
C602        C603   1.400       .  A
C603        C604   1.399       .  A
C603        H622   1.085       .  S
C604        C605   1.417       .  A
C604        C616   1.444       .  S
C605        C606   1.404       .  A
C606        H621   1.085       .  S
C607        C608   1.403       .  A
C607        C612   1.408       .  A
C608        C609   1.397       .  A
C608        H623   1.085       .  S
C609        C610   1.414       .  A
C609        C613   1.445       .  S
C610        C611   1.407       .  A
C611        C612   1.399       .  A
C611        H624   1.085       .  S
C612        C614   1.444       .  S
C613        N617   1.157       .  T
C614        N618   1.157       .  T
C615        N620   1.157       .  T
C616        N619   1.157       .  T
C625        C626   1.410       .  A
C625        C630   1.407       .  A
C625        C639   1.443       .  S
C626        C631   1.488       .  S
C626        C627   1.401       .  A
C627        C628   1.397       .  A
C627        H646   1.085       .  S
C628        C629   1.417       .  A
C628        C640   1.445       .  S
C629        C630   1.407       .  A
C630        H645   1.084       .  S
C631        C632   1.407       .  A
C631        C636   1.409       .  A
C632        C633   1.406       .  A
C632        H647   1.084       .  S
C633        C634   1.411       .  A
C633        C637   1.443       .  S
C634        C635   1.405       .  A
C635        C636   1.397       .  A
C635        H648   1.085       .  S
C636        C638   1.444       .  S
C637        N641   1.157       .  T
C638        N642   1.157       .  T
C639        N644   1.157       .  T
C640        N643   1.157       .  T
C649        C650   1.412       .  A
C649        C654   1.398       .  A
C649        C663   1.445       .  S
C650        C655   1.488       .  S
C650        C651   1.404       .  A
C651        C652   1.406       .  A
C651        H670   1.084       .  S
C652        C653   1.415       .  A
C652        C664   1.444       .  S
C653        C654   1.402       .  A
C654        H669   1.085       .  S
C655        C656   1.403       .  A
C655        C660   1.411       .  A
C656        C657   1.407       .  A
C656        H671   1.085       .  S
C657        C658   1.419       .  A
C657        C661   1.444       .  S
C658        C659   1.404       .  A
C659        C660   1.397       .  A
C659        H672   1.085       .  S
C660        C662   1.445       .  S
C661        N665   1.158       .  T
C662        N666   1.157       .  T
C663        N668   1.157       .  T
C664        N667   1.157       .  T
C673        C674   1.410       .  A
C673        C678   1.402       .  A
C673        C687   1.443       .  S
C674        C679   1.485       .  S
C674        C675   1.404       .  A
C675        C676   1.399       .  A
C675        H694   1.085       .  S
C676        C677   1.411       .  A
C676        C688   1.445       .  S
C677        C678   1.406       .  A
C678        H693   1.085       .  S
C679        C680   1.401       .  A
C679        C684   1.410       .  A
C680        C681   1.397       .  A
C680        H695   1.085       .  S
C681        C682   1.416       .  A
C681        C685   1.445       .  S
C682        C683   1.408       .  A
C683        C684   1.404       .  A
C683        H696   1.085       .  S
C684        C686   1.443       .  S
C685        N689   1.157       .  T
C686        N690   1.157       .  T
C687        N692   1.157       .  T
C688        N691   1.157       .  T
C697        C698   1.410       .  A
C697        C702   1.396       .  A
C697        C711   1.445       .  S
C698        C703   1.490       .  S
C698        C699   1.407       .  A
C699        C700   1.406       .  A
C699        H718   1.085       .  S
C700        C701   1.413       .  A
C700        C712   1.444       .  S
C701        C702   1.406       .  A
C702        H717   1.086       .  S
C703        C704   1.406       .  A
C703        C708   1.409       .  A
C704        C705   1.402       .  A
C704        H719   1.085       .  S
C705        C706   1.412       .  A
C705        C709   1.444       .  S
C706        C707   1.408       .  A
C707        C708   1.402       .  A
C707        H720   1.085       .  S
C708        C710   1.444       .  S
C709        N713   1.157       .  T
C710        N714   1.157       .  T
C711        N716   1.157       .  T
C712        N715   1.157       .  T
C721        C722   1.410       .  A
C721        C726   1.395       .  A
C721        C735   1.445       .  S
C722        C727   1.480       .  S
C722        C723   1.401       .  A
C723        C724   1.400       .  A
C723        H742   1.085       .  S
C724        C725   1.417       .  A
C724        C736   1.444       .  S
C725        C726   1.404       .  A
C726        H741   1.085       .  S
C727        C728   1.404       .  A
C727        C732   1.408       .  A
C728        C729   1.397       .  A
C728        H743   1.085       .  S
C729        C730   1.411       .  A
C729        C733   1.445       .  S
C730        C731   1.406       .  A
C731        C732   1.398       .  A
C731        H744   1.085       .  S
C732        C734   1.444       .  S
C733        N737   1.158       .  T
C734        N738   1.157       .  T
C735        N740   1.157       .  T
C736        N739   1.157       .  T
C745        C746   1.412       .  A
C745        C750   1.399       .  A
C745        C759   1.445       .  S
C746        C751   1.486       .  S
C746        C747   1.403       .  A
C747        C748   1.400       .  A
C747        H766   1.085       .  S
C748        C749   1.413       .  A
C748        C760   1.444       .  S
C749        C750   1.405       .  A
C750        H765   1.085       .  S
C751        C752   1.406       .  A
C751        C756   1.410       .  A
C752        C753   1.400       .  A
C752        H767   1.085       .  S
C753        C754   1.410       .  A
C753        C757   1.444       .  S
C754        C755   1.405       .  A
C755        C756   1.400       .  A
C755        H768   1.085       .  S
C756        C758   1.444       .  S
C757        N761   1.157       .  T
C758        N762   1.157       .  T
C759        N764   1.157       .  T
C760        N763   1.157       .  T
C769        C770   1.410       .  A
C769        C774   1.401       .  A
C769        C783   1.444       .  S
C770        C775   1.481       .  S
C770        C771   1.401       .  A
C771        C772   1.397       .  A
C771        H790   1.085       .  S
C772        C773   1.415       .  A
C772        C784   1.446       .  S
C773        C774   1.406       .  A
C774        H789   1.085       .  S
C775        C776   1.404       .  A
C775        C780   1.408       .  A
C776        C777   1.399       .  A
C776        H791   1.085       .  S
C777        C778   1.412       .  A
C777        C781   1.444       .  S
C778        C779   1.406       .  A
C779        C780   1.399       .  A
C779        H792   1.085       .  S
C780        C782   1.444       .  S
C781        N785   1.157       .  T
C782        N786   1.157       .  T
C783        N788   1.157       .  T
C784        N787   1.157       .  T
C793        C794   1.415       .  A
C793        C798   1.408       .  A
C793        C807   1.444       .  S
C794        C799   1.491       .  S
C794        C795   1.400       .  A
C795        C796   1.396       .  A
C795        H814   1.085       .  S
C796        C797   1.414       .  A
C796        C808   1.443       .  S
C797        C798   1.406       .  A
C798        H813   1.085       .  S
C799        C800   1.402       .  A
C799        C804   1.412       .  A
C800        C801   1.398       .  A
C800        H815   1.085       .  S
C801        C802   1.417       .  A
C801        C805   1.446       .  S
C802        C803   1.407       .  A
C803        C804   1.405       .  A
C803        H816   1.085       .  S
C804        C806   1.443       .  S
C805        N809   1.157       .  T
C806        N810   1.157       .  T
C807        N812   1.157       .  T
C808        N811   1.156       .  T
C817        C818   1.407       .  A
C817        C822   1.393       .  A
C817        C831   1.445       .  S
C818        C823   1.483       .  S
C818        C819   1.407       .  A
C819        C820   1.406       .  A
C819        H838   1.085       .  S
C820        C821   1.411       .  A
C820        C832   1.443       .  S
C821        C822   1.407       .  A
C822        H837   1.086       .  S
C823        C824   1.402       .  A
C823        C828   1.410       .  A
C824        C825   1.404       .  A
C824        H839   1.085       .  S
C825        C826   1.418       .  A
C825        C829   1.443       .  S
C826        C827   1.407       .  A
C827        C828   1.394       .  A
C827        H840   1.085       .  S
C828        C830   1.446       .  S
C829        N833   1.157       .  T
C830        N834   1.157       .  T
C831        N836   1.157       .  T
C832        N835   1.157       .  T
C841        C842   1.411       .  A
C841        C846   1.399       .  A
C841        C855   1.445       .  S
C842        C847   1.478       .  S
C842        C843   1.399       .  A
C843        C844   1.398       .  A
C843        H862   1.085       .  S
C844        C845   1.414       .  A
C844        C856   1.444       .  S
C845        C846   1.404       .  A
C846        H861   1.085       .  S
C847        C848   1.401       .  A
C847        C852   1.407       .  A
C848        C849   1.402       .  A
C848        H863   1.085       .  S
C849        C850   1.418       .  A
C849        C853   1.444       .  S
C850        C851   1.407       .  A
C851        C852   1.394       .  A
C851        H864   1.085       .  S
C852        C854   1.445       .  S
C853        N857   1.157       .  T
C854        N858   1.157       .  T
C855        N860   1.157       .  T
C856        N859   1.157       .  T
C865        C866   1.415       .  A
C865        C870   1.401       .  A
C865        C879   1.444       .  S
C866        C871   1.493       .  S
C866        C867   1.406       .  A
C867        C868   1.399       .  A
C867        H886   1.084       .  S
C868        C869   1.409       .  A
C868        C880   1.444       .  S
C869        C870   1.402       .  A
C870        H885   1.085       .  S
C871        C872   1.403       .  A
C871        C876   1.415       .  A
C872        C873   1.400       .  A
C872        H887   1.085       .  S
C873        C874   1.417       .  A
C873        C877   1.444       .  S
C874        C875   1.404       .  A
C875        C876   1.399       .  A
C875        H888   1.085       .  S
C876        C878   1.445       .  S
C877        N881   1.157       .  T
C878        N882   1.157       .  T
C879        N884   1.157       .  T
C880        N883   1.157       .  T
C889        C890   1.410       .  A
C889        C894   1.402       .  A
C889        C903   1.444       .  S
C890        C895   1.484       .  S
C890        C891   1.401       .  A
C891        C892   1.397       .  A
C891        H910   1.085       .  S
C892        C893   1.416       .  A
C892        C904   1.444       .  S
C893        C894   1.408       .  A
C894        H909   1.084       .  S
C895        C896   1.405       .  A
C895        C900   1.410       .  A
C896        C897   1.401       .  A
C896        H911   1.085       .  S
C897        C898   1.410       .  A
C897        C901   1.444       .  S
C898        C899   1.407       .  A
C899        C900   1.400       .  A
C899        H912   1.085       .  S
C900        C902   1.445       .  S
C901        N905   1.157       .  T
C902        N906   1.157       .  T
C903        N908   1.157       .  T
C904        N907   1.157       .  T
C913        C914   1.408       .  A
C913        C918   1.396       .  A
C913        C927   1.444       .  S
C914        C919   1.487       .  S
C914        C915   1.405       .  A
C915        C916   1.408       .  A
C915        H934   1.085       .  S
C916        C917   1.416       .  A
C916        C928   1.443       .  S
C917        C918   1.406       .  A
C918        H933   1.085       .  S
C919        C920   1.400       .  A
C919        C924   1.414       .  A
C920        C921   1.402       .  A
C920        H935   1.085       .  S
C921        C922   1.413       .  A
C921        C925   1.444       .  S
C922        C923   1.402       .  A
C923        C924   1.403       .  A
C923        H936   1.085       .  S
C924        C926   1.444       .  S
C925        N929   1.157       .  T
C926        N930   1.157       .  T
C927        N932   1.157       .  T
C928        N931   1.157       .  T
C937        C938   1.409       .  A
C937        C942   1.399       .  A
C937        C951   1.444       .  S
C938        C943   1.482       .  S
C938        C939   1.404       .  A
C939        C940   1.398       .  A
C939        H958   1.085       .  S
C940        C941   1.410       .  A
C940        C952   1.444       .  S
C941        C942   1.405       .  A
C942        H957   1.084       .  S
C943        C944   1.402       .  A
C943        C948   1.410       .  A
C944        C945   1.397       .  A
C944        H959   1.085       .  S
C945        C946   1.413       .  A
C945        C949   1.445       .  S
C946        C947   1.406       .  A
C947        C948   1.400       .  A
C947        H960   1.085       .  S
C948        C950   1.444       .  S
C949        N953   1.157       .  T
C950        N954   1.157       .  T
C951        N956   1.157       .  T
C952        N955   1.157       .  T
C961        C962   1.410       .  A
C961        C966   1.400       .  A
C961        C975   1.444       .  S
C962        C967   1.486       .  S
C962        C963   1.402       .  A
C963        C964   1.404       .  A
C963        H982   1.085       .  S
C964        C965   1.415       .  A
C964        C976   1.443       .  S
C965        C966   1.403       .  A
C966        H981   1.085       .  S
C967        C968   1.401       .  A
C967        C972   1.410       .  A
C968        C969   1.405       .  A
C968        H983   1.085       .  S
C969        C970   1.420       .  A
C969        C973   1.444       .  S
C970        C971   1.407       .  A
C971        C972   1.399       .  A
C971        H984   1.085       .  S
C972        C974   1.445       .  S
C973        N977   1.157       .  T
C974        N978   1.157       .  T
C975        N980   1.157       .  T
C976        N979   1.157       .  T
C985        C986   1.412       .  A
C985        C990   1.403       .  A
C985        C999   1.443       .  S
C986        C991   1.491       .  S
C986        C987   1.405       .  A
C987        C988   1.399       .  A
C987       H1006   1.085       .  S
C988        C989   1.412       .  A
C988       C1000   1.445       .  S
C989        C990   1.404       .  A
C990       H1005   1.083       .  S
C991        C992   1.403       .  A
C991        C996   1.413       .  A
C992        C993   1.403       .  A
C992       H1007   1.085       .  S
C993        C994   1.419       .  A
C993        C997   1.445       .  S
C994        C995   1.405       .  A
C995        C996   1.398       .  A
C995       H1008   1.085       .  S
C996        C998   1.445       .  S
C997       N1001   1.158       .  T
C998       N1002   1.157       .  T
C999       N1004   1.157       .  T
C1000      N1003   1.157       .  T
C1009      C1010   1.410       .  A
C1009      C1014   1.397       .  A
C1009      C1023   1.445       .  S
C1010      C1015   1.483       .  S
C1010      C1011   1.402       .  A
C1011      C1012   1.403       .  A
C1011      H1030   1.085       .  S
C1012      C1013   1.416       .  A
C1012      C1024   1.444       .  S
C1013      C1014   1.405       .  A
C1014      H1029   1.085       .  S
C1015      C1016   1.400       .  A
C1015      C1020   1.410       .  A
C1016      C1017   1.401       .  A
C1016      H1031   1.085       .  S
C1017      C1018   1.418       .  A
C1017      C1021   1.444       .  S
C1018      C1019   1.406       .  A
C1019      C1020   1.400       .  A
C1019      H1032   1.085       .  S
C1020      C1022   1.444       .  S
C1021      N1025   1.157       .  T
C1022      N1026   1.157       .  T
C1023      N1028   1.157       .  T
C1024      N1027   1.157       .  T
C1033      C1034   1.409       .  A
C1033      C1038   1.400       .  A
C1033      C1047   1.444       .  S
C1034      C1039   1.485       .  S
C1034      C1035   1.405       .  A
C1035      C1036   1.398       .  A
C1035      H1054   1.085       .  S
C1036      C1037   1.410       .  A
C1036      C1048   1.444       .  S
C1037      C1038   1.406       .  A
C1038      H1053   1.084       .  S
C1039      C1040   1.402       .  A
C1039      C1044   1.410       .  A
C1040      C1041   1.403       .  A
C1040      H1055   1.085       .  S
C1041      C1042   1.418       .  A
C1041      C1045   1.443       .  S
C1042      C1043   1.406       .  A
C1043      C1044   1.396       .  A
C1043      H1056   1.085       .  S
C1044      C1046   1.444       .  S
C1045      N1049   1.157       .  T
C1046      N1050   1.157       .  T
C1047      N1052   1.157       .  T
C1048      N1051   1.157       .  T
C1057      C1058   1.410       .  A
C1057      C1062   1.396       .  A
C1057      C1071   1.445       .  S
C1058      C1063   1.478       .  S
C1058      C1059   1.400       .  A
C1059      C1060   1.399       .  A
C1059      H1078   1.085       .  S
C1060      C1061   1.416       .  A
C1060      C1072   1.443       .  S
C1061      C1062   1.404       .  A
C1062      H1077   1.085       .  S
C1063      C1064   1.400       .  A
C1063      C1068   1.410       .  A
C1064      C1065   1.398       .  A
C1064      H1079   1.085       .  S
C1065      C1066   1.413       .  A
C1065      C1069   1.444       .  S
C1066      C1067   1.404       .  A
C1067      C1068   1.397       .  A
C1067      H1080   1.085       .  S
C1068      C1070   1.444       .  S
C1069      N1073   1.157       .  T
C1070      N1074   1.157       .  T
C1071      N1076   1.157       .  T
C1072      N1075   1.157       .  T
C1081      C1082   1.412       .  A
C1081      C1086   1.398       .  A
C1081      C1095   1.445       .  S
C1082      C1087   1.482       .  S
C1082      C1083   1.400       .  A
C1083      C1084   1.398       .  A
C1083      H1102   1.085       .  S
C1084      C1085   1.417       .  A
C1084      C1096   1.444       .  S
C1085      C1086   1.403       .  A
C1086      H1101   1.085       .  S
C1087      C1088   1.403       .  A
C1087      C1092   1.412       .  A
C1088      C1089   1.396       .  A
C1088      H1103   1.085       .  S
C1089      C1090   1.411       .  A
C1089      C1093   1.445       .  S
C1090      C1091   1.403       .  A
C1091      C1092   1.399       .  A
C1091      H1104   1.083       .  S
C1092      C1094   1.444       .  S
C1093      N1097   1.157       .  T
C1094      N1098   1.157       .  T
C1095      N1100   1.157       .  T
C1096      N1099   1.157       .  T
C1105      C1106   1.408       .  A
C1105      C1110   1.403       .  A
C1105      C1119   1.443       .  S
C1106      C1111   1.481       .  S
C1106      C1107   1.397       .  A
C1107      C1108   1.397       .  A
C1107      H1126   1.086       .  S
C1108      C1109   1.423       .  A
C1108      C1120   1.445       .  S
C1109      C1110   1.409       .  A
C1110      H1125   1.084       .  S
C1111      C1112   1.403       .  A
C1111      C1116   1.406       .  A
C1112      C1113   1.405       .  A
C1112      H1127   1.085       .  S
C1113      C1114   1.416       .  A
C1113      C1117   1.443       .  S
C1114      C1115   1.409       .  A
C1115      C1116   1.395       .  A
C1115      H1128   1.085       .  S
C1116      C1118   1.445       .  S
C1117      N1121   1.157       .  T
C1118      N1122   1.157       .  T
C1119      N1124   1.157       .  T
C1120      N1123   1.158       .  T
C1129      C1130   1.407       .  A
C1129      C1134   1.398       .  A
C1129      C1143   1.445       .  S
C1130      C1135   1.481       .  S
C1130      C1131   1.403       .  A
C1131      C1132   1.404       .  A
C1131      H1150   1.085       .  S
C1132      C1133   1.415       .  A
C1132      C1144   1.444       .  S
C1133      C1134   1.406       .  A
C1134      H1149   1.085       .  S
C1135      C1136   1.404       .  A
C1135      C1140   1.404       .  A
C1136      C1137   1.406       .  A
C1136      H1151   1.085       .  S
C1137      C1138   1.416       .  A
C1137      C1141   1.443       .  S
C1138      C1139   1.411       .  A
C1139      C1140   1.395       .  A
C1139      H1152   1.084       .  S
C1140      C1142   1.444       .  S
C1141      N1145   1.157       .  T
C1142      N1146   1.157       .  T
C1143      N1148   1.157       .  T
C1144      N1147   1.157       .  T
C1153      C1154   1.408       .  A
C1153      C1158   1.396       .  A
C1153      C1167   1.445       .  S
C1154      C1159   1.486       .  S
C1154      C1155   1.405       .  A
C1155      C1156   1.404       .  A
C1155      H1174   1.085       .  S
C1156      C1157   1.415       .  A
C1156      C1168   1.443       .  S
C1157      C1158   1.409       .  A
C1158      H1173   1.085       .  S
C1159      C1160   1.402       .  A
C1159      C1164   1.412       .  A
C1160      C1161   1.396       .  A
C1160      H1175   1.085       .  S
C1161      C1162   1.414       .  A
C1161      C1165   1.446       .  S
C1162      C1163   1.405       .  A
C1163      C1164   1.403       .  A
C1163      H1176   1.085       .  S
C1164      C1166   1.443       .  S
C1165      N1169   1.157       .  T
C1166      N1170   1.157       .  T
C1167      N1172   1.157       .  T
C1168      N1171   1.157       .  T
C1177      C1178   1.413       .  A
C1177      C1182   1.401       .  A
C1177      C1191   1.444       .  S
C1178      C1183   1.497       .  S
C1178      C1179   1.406       .  A
C1179      C1180   1.404       .  A
C1179      H1198   1.085       .  S
C1180      C1181   1.416       .  A
C1180      C1192   1.444       .  S
C1181      C1182   1.408       .  A
C1182      H1197   1.085       .  S
C1183      C1184   1.407       .  A
C1183      C1188   1.415       .  A
C1184      C1185   1.404       .  A
C1184      H1199   1.085       .  S
C1185      C1186   1.414       .  A
C1185      C1189   1.445       .  S
C1186      C1187   1.404       .  A
C1187      C1188   1.401       .  A
C1187      H1200   1.085       .  S
C1188      C1190   1.444       .  S
C1189      N1193   1.157       .  T
C1190      N1194   1.157       .  T
C1191      N1196   1.157       .  T
C1192      N1195   1.157       .  T
C1201      C1202   1.411       .  A
C1201      C1206   1.401       .  A
C1201      C1215   1.444       .  S
C1202      C1207   1.489       .  S
C1202      C1203   1.406       .  A
C1203      C1204   1.400       .  A
C1203      H1222   1.085       .  S
C1204      C1205   1.410       .  A
C1204      C1216   1.444       .  S
C1205      C1206   1.406       .  A
C1206      H1221   1.085       .  S
C1207      C1208   1.405       .  A
C1207      C1212   1.413       .  A
C1208      C1209   1.402       .  A
C1208      H1223   1.084       .  S
C1209      C1210   1.411       .  A
C1209      C1213   1.443       .  S
C1210      C1211   1.402       .  A
C1211      C1212   1.400       .  A
C1211      H1224   1.085       .  S
C1212      C1214   1.445       .  S
C1213      N1217   1.157       .  T
C1214      N1218   1.157       .  T
C1215      N1220   1.157       .  T
C1216      N1219   1.157       .  T
C1225      C1226   1.409       .  A
C1225      C1230   1.398       .  A
C1225      C1239   1.445       .  S
C1226      C1231   1.482       .  S
C1226      C1227   1.402       .  A
C1227      C1228   1.402       .  A
C1227      H1246   1.085       .  S
C1228      C1229   1.416       .  A
C1228      C1240   1.444       .  S
C1229      C1230   1.406       .  A
C1230      H1245   1.085       .  S
C1231      C1232   1.398       .  A
C1231      C1236   1.409       .  A
C1232      C1233   1.398       .  A
C1232      H1247   1.085       .  S
C1233      C1234   1.422       .  A
C1233      C1237   1.446       .  S
C1234      C1235   1.408       .  A
C1235      C1236   1.401       .  A
C1235      H1248   1.084       .  S
C1236      C1238   1.444       .  S
C1237      N1241   1.158       .  T
C1238      N1242   1.157       .  T
C1239      N1244   1.157       .  T
C1240      N1243   1.157       .  T
C1249      C1250   1.412       .  A
C1249      C1254   1.401       .  A
C1249      C1263   1.444       .  S
C1250      C1255   1.484       .  S
C1250      C1251   1.401       .  A
C1251      C1252   1.400       .  A
C1251      H1270   1.085       .  S
C1252      C1253   1.415       .  A
C1252      C1264   1.445       .  S
C1253      C1254   1.403       .  A
C1254      H1269   1.085       .  S
C1255      C1256   1.404       .  A
C1255      C1260   1.409       .  A
C1256      C1257   1.402       .  A
C1256      H1271   1.085       .  S
C1257      C1258   1.413       .  A
C1257      C1261   1.445       .  S
C1258      C1259   1.405       .  A
C1259      C1260   1.399       .  A
C1259      H1272   1.085       .  S
C1260      C1262   1.444       .  S
C1261      N1265   1.157       .  T
C1262      N1266   1.157       .  T
C1263      N1268   1.157       .  T
C1264      N1267   1.157       .  T
C1273      C1274   1.407       .  A
C1273      C1278   1.399       .  A
C1273      C1287   1.443       .  S
C1274      C1279   1.480       .  S
C1274      C1275   1.402       .  A
C1275      C1276   1.400       .  A
C1275      H1294   1.085       .  S
C1276      C1277   1.413       .  A
C1276      C1288   1.444       .  S
C1277      C1278   1.407       .  A
C1278      H1293   1.085       .  S
C1279      C1280   1.400       .  A
C1279      C1284   1.407       .  A
C1280      C1281   1.400       .  A
C1280      H1295   1.085       .  S
C1281      C1282   1.419       .  A
C1281      C1285   1.445       .  S
C1282      C1283   1.409       .  A
C1283      C1284   1.401       .  A
C1283      H1296   1.084       .  S
C1284      C1286   1.444       .  S
C1285      N1289   1.157       .  T
C1286      N1290   1.157       .  T
C1287      N1292   1.157       .  T
C1288      N1291   1.157       .  T
C1297      C1298   1.409       .  A
C1297      C1302   1.401       .  A
C1297      C1311   1.443       .  S
C1298      C1303   1.479       .  S
C1298      C1299   1.401       .  A
C1299      C1300   1.399       .  A
C1299      H1318   1.085       .  S
C1300      C1301   1.411       .  A
C1300      C1312   1.445       .  S
C1301      C1302   1.403       .  A
C1302      H1317   1.085       .  S
C1303      C1304   1.402       .  A
C1303      C1308   1.403       .  A
C1304      C1305   1.405       .  A
C1304      H1319   1.085       .  S
C1305      C1306   1.418       .  A
C1305      C1309   1.443       .  S
C1306      C1307   1.411       .  A
C1307      C1308   1.395       .  A
C1307      H1320   1.085       .  S
C1308      C1310   1.444       .  S
C1309      N1313   1.157       .  T
C1310      N1314   1.157       .  T
C1311      N1316   1.157       .  T
C1312      N1315   1.157   1_545  T
C1321      C1322   1.407       .  A
C1321      C1326   1.398       .  A
C1321      C1335   1.444       .  S
C1322      C1327   1.481       .  S
C1322      C1323   1.401       .  A
C1323      C1324   1.401       .  A
C1323      H1342   1.085       .  S
C1324      C1325   1.418       .  A
C1324      C1336   1.444       .  S
C1325      C1326   1.409       .  A
C1326      H1341   1.085       .  S
C1327      C1328   1.403       .  A
C1327      C1332   1.407       .  A
C1328      C1329   1.403       .  A
C1328      H1343   1.085       .  S
C1329      C1330   1.416       .  A
C1329      C1333   1.444       .  S
C1330      C1331   1.407       .  A
C1331      C1332   1.396       .  A
C1331      H1344   1.085       .  S
C1332      C1334   1.445       .  S
C1333      N1337   1.157       .  T
C1334      N1338   1.157       .  T
C1335      N1340   1.157       .  T
C1336      N1339   1.157       .  T
C1345      C1346   1.413       .  A
C1345      C1350   1.406       .  A
C1345      C1359   1.443       .  S
C1346      C1351   1.484       .  S
C1346      C1347   1.399       .  A
C1347      C1348   1.394       .  A
C1347      H1366   1.085       .  S
C1348      C1349   1.415       .  A
C1348      C1360   1.445       .  S
C1349      C1350   1.404       .  A
C1350      H1365   1.084       .  S
C1351      C1352   1.400       .  A
C1351      C1356   1.410       .  A
C1352      C1353   1.399       .  A
C1352      H1367   1.085       .  S
C1353      C1354   1.420       .  A
C1353      C1357   1.445       .  S
C1354      C1355   1.407       .  A
C1355      C1356   1.401       .  A
C1355      H1368   1.084       .  S
C1356      C1358   1.444       .  S
C1357      N1361   1.158       .  T
C1358      N1362   1.157       .  T
C1359      N1364   1.157       .  T
C1360      N1363   1.157   1_565  T
C1369      C1370   1.416       .  A
C1369      C1374   1.400       .  A
C1369      C1383   1.444       .  S
C1370      C1375   1.492       .  S
C1370      C1371   1.403       .  A
C1371      C1372   1.397       .  A
C1371      H1390   1.085       .  S
C1372      C1373   1.414       .  A
C1372      C1384   1.444       .  S
C1373      C1374   1.404       .  A
C1374      H1389   1.085       .  S
C1375      C1376   1.402       .  A
C1375      C1380   1.415       .  A
C1376      C1377   1.399       .  A
C1376      H1391   1.085       .  S
C1377      C1378   1.417       .  A
C1377      C1381   1.444       .  S
C1378      C1379   1.403       .  A
C1379      C1380   1.400       .  A
C1379      H1392   1.085       .  S
C1380      C1382   1.445       .  S
C1381      N1385   1.157       .  T
C1382      N1386   1.157       .  T
C1383      N1388   1.157       .  T
C1384      N1387   1.157       .  T
C1393      C1394   1.406       .  A
C1393      C1398   1.397       .  A
C1393      C1407   1.444       .  S
C1394      C1399   1.480       .  S
C1394      C1395   1.401       .  A
C1395      C1396   1.404       .  A
C1395      H1414   1.085       .  S
C1396      C1397   1.418       .  A
C1396      C1408   1.444       .  S
C1397      C1398   1.408       .  A
C1398      H1413   1.085       .  S
C1399      C1400   1.401       .  A
C1399      C1404   1.405       .  A
C1400      C1401   1.402       .  A
C1400      H1415   1.085       .  S
C1401      C1402   1.418       .  A
C1401      C1405   1.444       .  S
C1402      C1403   1.410       .  A
C1403      C1404   1.398       .  A
C1403      H1416   1.084       .  S
C1404      C1406   1.444       .  S
C1405      N1409   1.157       .  T
C1406      N1410   1.157       .  T
C1407      N1412   1.157       .  T
C1408      N1411   1.158       .  T
C1417      C1418   1.418       .  A
C1417      C1422   1.404       .  A
C1417      C1431   1.444       .  S
C1418      C1423   1.492       .  S
C1418      C1419   1.402       .  A
C1419      C1420   1.397       .  A
C1419      H1438   1.085       .  S
C1420      C1421   1.412       .  A
C1420      C1432   1.445       .  S
C1421      C1422   1.399       .  A
C1422      H1437   1.085       .  S
C1423      C1424   1.402       .  A
C1423      C1428   1.414       .  A
C1424      C1425   1.401       .  A
C1424      H1439   1.085       .  S
C1425      C1426   1.419       .  A
C1425      C1429   1.444       .  S
C1426      C1427   1.407       .  A
C1427      C1428   1.400       .  A
C1427      H1440   1.085       .  S
C1428      C1430   1.445       .  S
C1429      N1433   1.157       .  T
C1430      N1434   1.157       .  T
C1431      N1436   1.157       .  T
C1432      N1435   1.157       .  T
C1441      C1442   1.412       .  A
C1441      C1446   1.395       .  A
C1441      C1455   1.445       .  S
C1442      C1447   1.481       .  S
C1442      C1443   1.401       .  A
C1443      C1444   1.401       .  A
C1443      H1462   1.085       .  S
C1444      C1445   1.416       .  A
C1444      C1456   1.444       .  S
C1445      C1446   1.402       .  A
C1446      H1461   1.085       .  S
C1447      C1448   1.403       .  A
C1447      C1452   1.409       .  A
C1448      C1449   1.403       .  A
C1448      H1463   1.085       .  S
C1449      C1450   1.413       .  A
C1449      C1453   1.442       .  S
C1450      C1451   1.405       .  A
C1451      C1452   1.394       .  A
C1451      H1464   1.085       .  S
C1452      C1454   1.445       .  S
C1453      N1457   1.157       .  T
C1454      N1458   1.157       .  T
C1455      N1460   1.157       .  T
C1456      N1459   1.157       .  T
C1465      C1466   1.409       .  A
C1465      C1470   1.400       .  A
C1465      C1479   1.444       .  S
C1466      C1471   1.484       .  S
C1466      C1467   1.398       .  A
C1467      C1468   1.401       .  A
C1467      H1486   1.085       .  S
C1468      C1469   1.426       .  A
C1468      C1480   1.445       .  S
C1469      C1470   1.408       .  A
C1470      H1485   1.084       .  S
C1471      C1472   1.402       .  A
C1471      C1476   1.408       .  A
C1472      C1473   1.403       .  A
C1472      H1487   1.085       .  S
C1473      C1474   1.419       .  A
C1473      C1477   1.445       .  S
C1474      C1475   1.407       .  A
C1475      C1476   1.397       .  A
C1475      H1488   1.085       .  S
C1476      C1478   1.444       .  S
C1477      N1481   1.158       .  T
C1478      N1482   1.157       .  T
C1479      N1484   1.157       .  T
C1480      N1483   1.158       .  T
C1489      C1490   1.411       .  A
C1489      C1494   1.398       .  A
C1489      C1503   1.445       .  S
C1490      C1495   1.486       .  S
C1490      C1491   1.403       .  A
C1491      C1492   1.402       .  A
C1491      H1510   1.085       .  S
C1492      C1493   1.415       .  A
C1492      C1504   1.444       .  S
C1493      C1494   1.406       .  A
C1494      H1509   1.085       .  S
C1495      C1496   1.403       .  A
C1495      C1500   1.409       .  A
C1496      C1497   1.402       .  A
C1496      H1511   1.085       .  S
C1497      C1498   1.417       .  A
C1497      C1501   1.444       .  S
C1498      C1499   1.408       .  A
C1499      C1500   1.397       .  A
C1499      H1512   1.085       .  S
C1500      C1502   1.445       .  S
C1501      N1505   1.157       .  T
C1502      N1506   1.157       .  T
C1503      N1508   1.157       .  T
C1504      N1507   1.157       .  T
C1513      C1514   1.412       .  A
C1513      C1518   1.403       .  A
C1513      C1527   1.443       .  S
C1514      C1519   1.488       .  S
C1514      C1515   1.404       .  A
C1515      C1516   1.400       .  A
C1515      H1534   1.085       .  S
C1516      C1517   1.411       .  A
C1516      C1528   1.445       .  S
C1517      C1518   1.403       .  A
C1518      H1533   1.085       .  S
C1519      C1520   1.403       .  A
C1519      C1524   1.409       .  A
C1520      C1521   1.406       .  A
C1520      H1535   1.085       .  S
C1521      C1522   1.421       .  A
C1521      C1525   1.444       .  S
C1522      C1523   1.409       .  A
C1523      C1524   1.398       .  A
C1523      H1536   1.084       .  S
C1524      C1526   1.445       .  S
C1525      N1529   1.158       .  T
C1526      N1530   1.157       .  T
C1527      N1532   1.157       .  T
C1528      N1531   1.157       .  T
C1537      C1538   1.407       .  A
C1537      C1542   1.400       .  A
C1537      C1551   1.445       .  S
C1538      C1543   1.489       .  S
C1538      C1539   1.404       .  A
C1539      C1540   1.407       .  A
C1539      H1558   1.085       .  S
C1540      C1541   1.418       .  A
C1540      C1552   1.443       .  S
C1541      C1542   1.413       .  A
C1542      H1557   1.084       .  S
C1543      C1544   1.401       .  A
C1543      C1548   1.412       .  A
C1544      C1545   1.402       .  A
C1544      H1559   1.085       .  S
C1545      C1546   1.417       .  A
C1545      C1549   1.445       .  S
C1546      C1547   1.406       .  A
C1547      C1548   1.404       .  A
C1547      H1560   1.085       .  S
C1548      C1550   1.443       .  S
C1549      N1553   1.157       .  T
C1550      N1554   1.157       .  T
C1551      N1556   1.157       .  T
C1552      N1555   1.157       .  T
C1561      C1562   1.408       .  A
C1561      C1566   1.399       .  A
C1561      C1575   1.445       .  S
C1562      C1567   1.482       .  S
C1562      C1563   1.401       .  A
C1563      C1564   1.403       .  A
C1563      H1582   1.085       .  S
C1564      C1565   1.415       .  A
C1564      C1576   1.444       .  S
C1565      C1566   1.407       .  A
C1566      H1581   1.085       .  S
C1567      C1568   1.402       .  A
C1567      C1572   1.406       .  A
C1568      C1569   1.404       .  A
C1568      H1583   1.085       .  S
C1569      C1570   1.417       .  A
C1569      C1573   1.444       .  S
C1570      C1571   1.410       .  A
C1571      C1572   1.398       .  A
C1571      H1584   1.084       .  S
C1572      C1574   1.445       .  S
C1573      N1577   1.157       .  T
C1574      N1578   1.157       .  T
C1575      N1580   1.157       .  T
C1576      N1579   1.157       .  T
C1585      C1586   1.408       .  A
C1585      C1590   1.397       .  A
C1585      C1599   1.445       .  S
C1586      C1591   1.486       .  S
C1586      C1587   1.402       .  A
C1587      C1588   1.407       .  A
C1587      H1606   1.085       .  S
C1588      C1589   1.419       .  A
C1588      C1600   1.443       .  S
C1589      C1590   1.408       .  A
C1590      H1605   1.085       .  S
C1591      C1592   1.402       .  A
C1591      C1596   1.412       .  A
C1592      C1593   1.404       .  A
C1592      H1607   1.085       .  S
C1593      C1594   1.415       .  A
C1593      C1597   1.444       .  S
C1594      C1595   1.402       .  A
C1595      C1596   1.400       .  A
C1595      H1608   1.085       .  S
C1596      C1598   1.444       .  S
C1597      N1601   1.157       .  T
C1598      N1602   1.157       .  T
C1599      N1604   1.157       .  T
C1600      N1603   1.157       .  T
C1609      C1610   1.412       .  A
C1609      C1614   1.405       .  A
C1609      C1623   1.444       .  S
C1610      C1615   1.494       .  S
C1610      C1611   1.404       .  A
C1611      C1612   1.404       .  A
C1611      H1630   1.085       .  S
C1612      C1613   1.413       .  A
C1612      C1624   1.444       .  S
C1613      C1614   1.407       .  A
C1614      H1629   1.085       .  S
C1615      C1616   1.405       .  A
C1615      C1620   1.413       .  A
C1616      C1617   1.405       .  A
C1616      H1631   1.085       .  S
C1617      C1618   1.416       .  A
C1617      C1621   1.445       .  S
C1618      C1619   1.405       .  A
C1619      C1620   1.403       .  A
C1619      H1632   1.085       .  S
C1620      C1622   1.444       .  S
C1621      N1625   1.158       .  T
C1622      N1626   1.157       .  T
C1623      N1628   1.157       .  T
C1624      N1627   1.157       .  T
C1633      C1634   1.407       .  A
C1633      C1638   1.395       .  A
C1633      C1647   1.444       .  S
C1634      C1639   1.476       .  S
C1634      C1635   1.401       .  A
C1635      C1636   1.400       .  A
C1635      H1654   1.085       .  S
C1636      C1637   1.416       .  A
C1636      C1648   1.445       .  S
C1637      C1638   1.407       .  A
C1638      H1653   1.085       .  S
C1639      C1640   1.396       .  A
C1639      C1644   1.407       .  A
C1640      C1641   1.395       .  A
C1640      H1655   1.086       .  S
C1641      C1642   1.424       .  A
C1641      C1645   1.445       .  S
C1642      C1643   1.410       .  A
C1643      C1644   1.401       .  A
C1643      H1656   1.084       .  S
C1644      C1646   1.444       .  S
C1645      N1649   1.158       .  T
C1646      N1650   1.157       .  T
C1647      N1652   1.157       .  T
C1648      N1651   1.158       .  T
C1657      C1658   1.409       .  A
C1657      C1662   1.401       .  A
C1657      C1671   1.444       .  S
C1658      C1663   1.482       .  S
C1658      C1659   1.400       .  A
C1659      C1660   1.398       .  A
C1659      H1678   1.085       .  S
C1660      C1661   1.420       .  A
C1660      C1672   1.445       .  S
C1661      C1662   1.408       .  A
C1662      H1677   1.084       .  S
C1663      C1664   1.398       .  A
C1663      C1668   1.412       .  A
C1664      C1665   1.395       .  A
C1664      H1679   1.085       .  S
C1665      C1666   1.416       .  A
C1665      C1669   1.445       .  S
C1666      C1667   1.404       .  A
C1667      C1668   1.405       .  A
C1667      H1680   1.085       .  S
C1668      C1670   1.443       .  S
C1669      N1673   1.157   1_545  T
C1670      N1674   1.157       .  T
C1671      N1676   1.157       .  T
C1672      N1675   1.158       .  T
C1681      C1682   1.409       .  A
C1681      C1686   1.397       .  A
C1681      C1695   1.444       .  S
C1682      C1687   1.483       .  S
C1682      C1683   1.400       .  A
C1683      C1684   1.405       .  A
C1683      H1702   1.085       .  S
C1684      C1685   1.421       .  A
C1684      C1696   1.443       .  S
C1685      C1686   1.406       .  A
C1686      H1701   1.085       .  S
C1687      C1688   1.399       .  A
C1687      C1692   1.410       .  A
C1688      C1689   1.401       .  A
C1688      H1703   1.085       .  S
C1689      C1690   1.420       .  A
C1689      C1693   1.445       .  S
C1690      C1691   1.405       .  A
C1691      C1692   1.400       .  A
C1691      H1704   1.085       .  S
C1692      C1694   1.444       .  S
C1693      N1697   1.157       .  T
C1694      N1698   1.157       .  T
C1695      N1700   1.157       .  T
C1696      N1699   1.157       .  T
C1705      C1706   1.406       .  A
C1705      C1710   1.394       .  A
C1705      C1719   1.444       .  S
C1706      C1711   1.478       .  S
C1706      C1707   1.405       .  A
C1707      C1708   1.404       .  A
C1707      H1726   1.084       .  S
C1708      C1709   1.410       .  A
C1708      C1720   1.444       .  S
C1709      C1710   1.404       .  A
C1710      H1725   1.085       .  S
C1711      C1712   1.400       .  A
C1711      C1716   1.406       .  A
C1712      C1713   1.405       .  A
C1712      H1727   1.085       .  S
C1713      C1714   1.422       .  A
C1713      C1717   1.444       .  S
C1714      C1715   1.409       .  A
C1715      C1716   1.395       .  A
C1715      H1728   1.084       .  S
C1716      C1718   1.445       .  S
C1717      N1721   1.158       .  T
C1718      N1722   1.157       .  T
C1719      N1724   1.157       .  T
C1720      N1723   1.157       .  T
C1729      C1730   1.409       .  A
C1729      C1734   1.399       .  A
C1729      C1743   1.445       .  S
C1730      C1735   1.484       .  S
C1730      C1731   1.402       .  A
C1731      C1732   1.401       .  A
C1731      H1750   1.085       .  S
C1732      C1733   1.418       .  A
C1732      C1744   1.444       .  S
C1733      C1734   1.409       .  A
C1734      H1749   1.085       .  S
C1735      C1736   1.397       .  A
C1735      C1740   1.410       .  A
C1736      C1737   1.397       .  A
C1736      H1751   1.086       .  S
C1737      C1738   1.425       .  A
C1737      C1741   1.446       .  S
C1738      C1739   1.408       .  A
C1739      C1740   1.403       .  A
C1739      H1752   1.084       .  S
C1740      C1742   1.443       .  S
C1741      N1745   1.158       .  T
C1742      N1746   1.157       .  T
C1743      N1748   1.157       .  T
C1744      N1747   1.157       .  T
C1753      C1754   1.411       .  A
C1753      C1758   1.402       .  A
C1753      C1767   1.444       .  S
C1754      C1759   1.489       .  S
C1754      C1755   1.403       .  A
C1755      C1756   1.402       .  A
C1755      H1774   1.085       .  S
C1756      C1757   1.415       .  A
C1756      C1768   1.444       .  S
C1757      C1758   1.407       .  A
C1758      H1773   1.085       .  S
C1759      C1760   1.403       .  A
C1759      C1764   1.413       .  A
C1760      C1761   1.402       .  A
C1760      H1775   1.085       .  S
C1761      C1762   1.416       .  A
C1761      C1765   1.445       .  S
C1762      C1763   1.404       .  A
C1763      C1764   1.401       .  A
C1763      H1776   1.085       .  S
C1764      C1766   1.444       .  S
C1765      N1769   1.157       .  T
C1766      N1770   1.157       .  T
C1767      N1772   1.157       .  T
C1768      N1771   1.157       .  T
C1777      C1778   1.410       .  A
C1777      C1782   1.404       .  A
C1777      C1791   1.443       .  S
C1778      C1783   1.479       .  S
C1778      C1779   1.397       .  A
C1779      C1780   1.394       .  A
C1779      H1798   1.085       .  S
C1780      C1781   1.418       .  A
C1780      C1792   1.446       .  S
C1781      C1782   1.404       .  A
C1782      H1797   1.084       .  S
C1783      C1784   1.399       .  A
C1783      C1788   1.407       .  A
C1784      C1785   1.398       .  A
C1784      H1799   1.085       .  S
C1785      C1786   1.421       .  A
C1785      C1789   1.446       .  S
C1786      C1787   1.408       .  A
C1787      C1788   1.400       .  A
C1787      H1800   1.084       .  S
C1788      C1790   1.444       .  S
C1789      N1793   1.158       .  T
C1790      N1794   1.157       .  T
C1791      N1796   1.157       .  T
C1792      N1795   1.157   1_455  T
C1801      C1802   1.409       .  A
C1801      C1806   1.402       .  A
C1801      C1815   1.444       .  S
C1802      C1807   1.481       .  S
C1802      C1803   1.402       .  A
C1803      C1804   1.398       .  A
C1803      H1822   1.085       .  S
C1804      C1805   1.412       .  A
C1804      C1816   1.444       .  S
C1805      C1806   1.407       .  A
C1806      H1821   1.085       .  S
C1807      C1808   1.402       .  A
C1807      C1812   1.409       .  A
C1808      C1809   1.398       .  A
C1808      H1823   1.085       .  S
C1809      C1810   1.413       .  A
C1809      C1813   1.444       .  S
C1810      C1811   1.405       .  A
C1811      C1812   1.402       .  A
C1811      H1824   1.085       .  S
C1812      C1814   1.443       .  S
C1813      N1817   1.157       .  T
C1814      N1818   1.157       .  T
C1815      N1820   1.157       .  T
C1816      N1819   1.157       .  T
C1825      C1826   1.410       .  A
C1825      C1830   1.395       .  A
C1825      C1839   1.445       .  S
C1826      C1831   1.488       .  S
C1826      C1827   1.408       .  A
C1827      C1828   1.405       .  A
C1827      H1846   1.085       .  S
C1828      C1829   1.410       .  A
C1828      C1840   1.443       .  S
C1829      C1830   1.405       .  A
C1830      H1845   1.086       .  S
C1831      C1832   1.404       .  A
C1831      C1836   1.410       .  A
C1832      C1833   1.403       .  A
C1832      H1847   1.085       .  S
C1833      C1834   1.417       .  A
C1833      C1837   1.444       .  S
C1834      C1835   1.407       .  A
C1835      C1836   1.399       .  A
C1835      H1848   1.085       .  S
C1836      C1838   1.445       .  S
C1837      N1841   1.157       .  T
C1838      N1842   1.157       .  T
C1839      N1844   1.157       .  T
C1840      N1843   1.157       .  T
C1849      C1850   1.406       .  A
C1849      C1854   1.401       .  A
C1849      C1863   1.444       .  S
C1850      C1855   1.485       .  S
C1850      C1851   1.400       .  A
C1851      C1852   1.404       .  A
C1851      H1870   1.085       .  S
C1852      C1853   1.422       .  A
C1852      C1864   1.444       .  S
C1853      C1854   1.412       .  A
C1854      H1869   1.084       .  S
C1855      C1856   1.398       .  A
C1855      C1860   1.410       .  A
C1856      C1857   1.399       .  A
C1856      H1871   1.085       .  S
C1857      C1858   1.419       .  A
C1857      C1861   1.445       .  S
C1858      C1859   1.407       .  A
C1859      C1860   1.407       .  A
C1859      H1872   1.084       .  S
C1860      C1862   1.443       .  S
C1861      N1865   1.157       .  T
C1862      N1866   1.157       .  T
C1863      N1868   1.157       .  T
C1864      N1867   1.157       .  T
C1873      C1874   1.410       .  A
C1873      C1878   1.396       .  A
C1873      C1887   1.445       .  S
C1874      C1879   1.482       .  S
C1874      C1875   1.404       .  A
C1875      C1876   1.402       .  A
C1875      H1894   1.085       .  S
C1876      C1877   1.411       .  A
C1876      C1888   1.444       .  S
C1877      C1878   1.403       .  A
C1878      H1893   1.085       .  S
C1879      C1880   1.402       .  A
C1879      C1884   1.407       .  A
C1880      C1881   1.400       .  A
C1880      H1895   1.085       .  S
C1881      C1882   1.416       .  A
C1881      C1885   1.444       .  S
C1882      C1883   1.409       .  A
C1883      C1884   1.398       .  A
C1883      H1896   1.085       .  S
C1884      C1886   1.444       .  S
C1885      N1889   1.157       .  T
C1886      N1890   1.157       .  T
C1887      N1892   1.157       .  T
C1888      N1891   1.157       .  T
C1897      C1898   1.412       .  A
C1897      C1902   1.406       .  A
C1897      C1911   1.443       .  S
C1898      C1903   1.495       .  S
C1898      C1899   1.405       .  A
C1899      C1900   1.401       .  A
C1899      H1918   1.085       .  S
C1900      C1901   1.414       .  A
C1900      C1912   1.444       .  S
C1901      C1902   1.409       .  A
C1902      H1917   1.085       .  S
C1903      C1904   1.405       .  A
C1903      C1908   1.412       .  A
C1904      C1905   1.406       .  A
C1904      H1919   1.085       .  S
C1905      C1906   1.415       .  A
C1905      C1909   1.442       .  S
C1906      C1907   1.406       .  A
C1907      C1908   1.401       .  A
C1907      H1920   1.085       .  S
C1908      C1910   1.445       .  S
C1909      N1913   1.157       .  T
C1910      N1914   1.157       .  T
C1911      N1916   1.157       .  T
C1912      N1915   1.157       .  T
C1921      C1922   1.410       .  A
C1921      C1926   1.400       .  A
C1921      C1935   1.444       .  S
C1922      C1927   1.486       .  S
C1922      C1923   1.401       .  A
C1923      C1924   1.403       .  A
C1923      H1942   1.085       .  S
C1924      C1925   1.418       .  A
C1924      C1936   1.444       .  S
C1925      C1926   1.406       .  A
C1926      H1941   1.085       .  S
C1927      C1928   1.401       .  A
C1927      C1932   1.411       .  A
C1928      C1929   1.403       .  A
C1928      H1943   1.085       .  S
C1929      C1930   1.417       .  A
C1929      C1933   1.444       .  S
C1930      C1931   1.405       .  A
C1931      C1932   1.400       .  A
C1931      H1944   1.085       .  S
C1932      C1934   1.444       .  S
C1933      N1937   1.157       .  T
C1934      N1938   1.157       .  T
C1935      N1940   1.157       .  T
C1936      N1939   1.157       .  T
C1945      C1946   1.412       .  A
C1945      C1950   1.406       .  A
C1945      C1959   1.443       .  S
C1946      C1951   1.482       .  S
C1946      C1947   1.397       .  A
C1947      C1948   1.394       .  A
C1947      H1966   1.085       .  S
C1948      C1949   1.417       .  A
C1948      C1960   1.446       .  S
C1949      C1950   1.404       .  A
C1950      H1965   1.084       .  S
C1951      C1952   1.404       .  A
C1951      C1956   1.408       .  A
C1952      C1953   1.405       .  A
C1952      H1967   1.085       .  S
C1953      C1954   1.415       .  A
C1953      C1957   1.443       .  S
C1954      C1955   1.406       .  A
C1955      C1956   1.397       .  A
C1955      H1968   1.085       .  S
C1956      C1958   1.445       .  S
C1957      N1961   1.157       .  T
C1958      N1962   1.157       .  T
C1959      N1964   1.157       .  T
C1960      N1963   1.157   1_556  T
C1969      C1970   1.412       .  A
C1969      C1974   1.398       .  A
C1969      C1983   1.445       .  S
C1970      C1975   1.490       .  S
C1970      C1971   1.405       .  A
C1971      C1972   1.403       .  A
C1971      H1990   1.085       .  S
C1972      C1973   1.413       .  A
C1972      C1984   1.444       .  S
C1973      C1974   1.405       .  A
C1974      H1989   1.085       .  S
C1975      C1976   1.402       .  A
C1975      C1980   1.410       .  A
C1976      C1977   1.402       .  A
C1976      H1991   1.085       .  S
C1977      C1978   1.420       .  A
C1977      C1981   1.444       .  S
C1978      C1979   1.411       .  A
C1979      C1980   1.401       .  A
C1979      H1992   1.084       .  S
C1980      C1982   1.444       .  S
C1981      N1985   1.157       .  T
C1982      N1986   1.157       .  T
C1983      N1988   1.157       .  T
C1984      N1987   1.157       .  T
C1993      C1994   1.409       .  A
C1993      C1998   1.400       .  A
C1993      C2007   1.444       .  S
C1994      C1999   1.475       .  S
C1994      C1995   1.398       .  A
C1995      C1996   1.394       .  A
C1995      H2014   1.085       .  S
C1996      C1997   1.417       .  A
C1996      C2008   1.446       .  S
C1997      C1998   1.405       .  A
C1998      H2013   1.085       .  S
C1999      C2000   1.402       .  A
C1999      C2004   1.405       .  A
C2000      C2001   1.401       .  A
C2000      H2015   1.085       .  S
C2001      C2002   1.416       .  A
C2001      C2005   1.444       .  S
C2002      C2003   1.408       .  A
C2003      C2004   1.393       .  A
C2003      H2016   1.085       .  S
C2004      C2006   1.445       .  S
C2005      N2009   1.157       .  T
C2006      N2010   1.157       .  T
C2007      N2012   1.157       .  T
C2008      N2011   1.157       .  T
C2017      C2018   1.409       .  A
C2017      C2022   1.404       .  A
C2017      C2031   1.443       .  S
C2018      C2023   1.483       .  S
C2018      C2019   1.400       .  A
C2019      C2020   1.399       .  A
C2019      H2038   1.085       .  S
C2020      C2021   1.417       .  A
C2020      C2032   1.444       .  S
C2021      C2022   1.409       .  A
C2022      H2037   1.085       .  S
C2023      C2024   1.403       .  A
C2023      C2028   1.408       .  A
C2024      C2025   1.403       .  A
C2024      H2039   1.085       .  S
C2025      C2026   1.415       .  A
C2025      C2029   1.445       .  S
C2026      C2027   1.406       .  A
C2027      C2028   1.400       .  A
C2027      H2040   1.083       .  S
C2028      C2030   1.444       .  S
C2029      N2033   1.158       .  T
C2030      N2034   1.157       .  T
C2031      N2036   1.157       .  T
C2032      N2035   1.157       .  T
C2041      C2042   1.411       .  A
C2041      C2046   1.396       .  A
C2041      C2055   1.444       .  S
C2042      C2047   1.484       .  S
C2042      C2043   1.402       .  A
C2043      C2044   1.400       .  A
C2043      H2062   1.085       .  S
C2044      C2045   1.414       .  A
C2044      C2056   1.442       .  S
C2045      C2046   1.404       .  A
C2046      H2061   1.085       .  S
C2047      C2048   1.404       .  A
C2047      C2052   1.410       .  A
C2048      C2049   1.397       .  A
C2048      H2063   1.085       .  S
C2049      C2050   1.410       .  A
C2049      C2053   1.444       .  S
C2050      C2051   1.407       .  A
C2051      C2052   1.401       .  A
C2051      H2064   1.085       .  S
C2052      C2054   1.444       .  S
C2053      N2057   1.157       .  T
C2054      N2058   1.157       .  T
C2055      N2060   1.157       .  T
C2056      N2059   1.157       .  T
C2065      C2066   1.410       .  A
C2065      C2070   1.405       .  A
C2065      C2079   1.443       .  S
C2066      C2071   1.474       .  S
C2066      C2067   1.395       .  A
C2067      C2068   1.391       .  A
C2067      H2086   1.085       .  S
C2068      C2069   1.416       .  A
C2068      C2080   1.445       .  S
C2069      C2070   1.405       .  A
C2070      H2085   1.084       .  S
C2071      C2072   1.399       .  A
C2071      C2076   1.404       .  A
C2072      C2073   1.397       .  A
C2072      H2087   1.086       .  S
C2073      C2074   1.420       .  A
C2073      C2077   1.445       .  S
C2074      C2075   1.411       .  A
C2075      C2076   1.399       .  A
C2075      H2088   1.084       .  S
C2076      C2078   1.443       .  S
C2077      N2081   1.158       .  T
C2078      N2082   1.157       .  T
C2079      N2084   1.157       .  T
C2080      N2083   1.157   1_565  T
C2089      C2090   1.409       .  A
C2089      C2094   1.402       .  A
C2089      C2103   1.444       .  S
C2090      C2095   1.485       .  S
C2090      C2091   1.404       .  A
C2091      C2092   1.401       .  A
C2091      H2110   1.085       .  S
C2092      C2093   1.411       .  A
C2092      C2104   1.443       .  S
C2093      C2094   1.407       .  A
C2094      H2109   1.085       .  S
C2095      C2096   1.401       .  A
C2095      C2100   1.409       .  A
C2096      C2097   1.400       .  A
C2096      H2111   1.085       .  S
C2097      C2098   1.417       .  A
C2097      C2101   1.445       .  S
C2098      C2099   1.409       .  A
C2099      C2100   1.403       .  A
C2099      H2112   1.085       .  S
C2100      C2102   1.444       .  S
C2101      N2105   1.157       .  T
C2102      N2106   1.157       .  T
C2103      N2108   1.157       .  T
C2104      N2107   1.157       .  T
C2113      C2114   1.412       .  A
C2113      C2118   1.404       .  A
C2113      C2127   1.444       .  S
C2114      C2119   1.482       .  S
C2114      C2115   1.400       .  A
C2115      C2116   1.395       .  A
C2115      H2134   1.085       .  S
C2116      C2117   1.414       .  A
C2116      C2128   1.445       .  S
C2117      C2118   1.405       .  A
C2118      H2133   1.085       .  S
C2119      C2120   1.403       .  A
C2119      C2124   1.406       .  A
C2120      C2121   1.402       .  A
C2120      H2135   1.085       .  S
C2121      C2122   1.418       .  A
C2121      C2125   1.444       .  S
C2122      C2123   1.412       .  A
C2123      C2124   1.397       .  A
C2123      H2136   1.084       .  S
C2124      C2126   1.445       .  S
C2125      N2129   1.157       .  T
C2126      N2130   1.157       .  T
C2127      N2132   1.157       .  T
C2128      N2131   1.157       .  T
C2137      C2138   1.406       .  A
C2137      C2142   1.399       .  A
C2137      C2151   1.444       .  S
C2138      C2143   1.476       .  S
C2138      C2139   1.397       .  A
C2139      C2140   1.397       .  A
C2139      H2158   1.086       .  S
C2140      C2141   1.422       .  A
C2140      C2152   1.445       .  S
C2141      C2142   1.410       .  A
C2142      H2157   1.084       .  S
C2143      C2144   1.400       .  A
C2143      C2148   1.407       .  A
C2144      C2145   1.397       .  A
C2144      H2159   1.085       .  S
C2145      C2146   1.416       .  A
C2145      C2149   1.444       .  S
C2146      C2147   1.408       .  A
C2147      C2148   1.398       .  A
C2147      H2160   1.085       .  S
C2148      C2150   1.444       .  S
C2149      N2153   1.157       .  T
C2150      N2154   1.157       .  T
C2151      N2156   1.157       .  T
C2152      N2155   1.157       .  T
C2161      C2162   1.409       .  A
C2161      C2166   1.403       .  A
C2161      C2175   1.444       .  S
C2162      C2167   1.486       .  S
C2162      C2163   1.403       .  A
C2163      C2164   1.400       .  A
C2163      H2182   1.085       .  S
C2164      C2165   1.414       .  A
C2164      C2176   1.444       .  S
C2165      C2166   1.407       .  A
C2166      H2181   1.085       .  S
C2167      C2168   1.403       .  A
C2167      C2172   1.410       .  A
C2168      C2169   1.402       .  A
C2168      H2183   1.085       .  S
C2169      C2170   1.415       .  A
C2169      C2173   1.445       .  S
C2170      C2171   1.406       .  A
C2171      C2172   1.400       .  A
C2171      H2184   1.085       .  S
C2172      C2174   1.444       .  S
C2173      N2177   1.157       .  T
C2174      N2178   1.157       .  T
C2175      N2180   1.157       .  T
C2176      N2179   1.157       .  T
C2185      C2186   1.408       .  A
C2185      C2190   1.401       .  A
C2185      C2199   1.444       .  S
C2186      C2191   1.484       .  S
C2186      C2187   1.403       .  A
C2187      C2188   1.399       .  A
C2187      H2206   1.085       .  S
C2188      C2189   1.414       .  A
C2188      C2200   1.444       .  S
C2189      C2190   1.409       .  A
C2190      H2205   1.085       .  S
C2191      C2192   1.402       .  A
C2191      C2196   1.410       .  A
C2192      C2193   1.402       .  A
C2192      H2207   1.085       .  S
C2193      C2194   1.416       .  A
C2193      C2197   1.444       .  S
C2194      C2195   1.406       .  A
C2195      C2196   1.397       .  A
C2195      H2208   1.085       .  S
C2196      C2198   1.445       .  S
C2197      N2201   1.157       .  T
C2198      N2202   1.157       .  T
C2199      N2204   1.157       .  T
C2200      N2203   1.157       .  T
C2209      C2210   1.408       .  A
C2209      C2214   1.398       .  A
C2209      C2223   1.444       .  S
C2210      C2215   1.476       .  S
C2210      C2211   1.401       .  A
C2211      C2212   1.396       .  A
C2211      H2230   1.085       .  S
C2212      C2213   1.413       .  A
C2212      C2224   1.445       .  S
C2213      C2214   1.406       .  A
C2214      H2229   1.084       .  S
C2215      C2216   1.404       .  A
C2215      C2220   1.410       .  A
C2216      C2217   1.396       .  A
C2216      H2231   1.085       .  S
C2217      C2218   1.406       .  A
C2217      C2221   1.445       .  S
C2218      C2219   1.401       .  A
C2219      C2220   1.397       .  A
C2219      H2232   1.085       .  S
C2220      C2222   1.444       .  S
C2221      N2225   1.157       .  T
C2222      N2226   1.157       .  T
C2223      N2228   1.157       .  T
C2224      N2227   1.157       .  T
C2233      C2234   1.411       .  A
C2233      C2238   1.401       .  A
C2233      C2247   1.444       .  S
C2234      C2239   1.488       .  S
C2234      C2235   1.405       .  A
C2235      C2236   1.400       .  A
C2235      H2254   1.085       .  S
C2236      C2237   1.412       .  A
C2236      C2248   1.445       .  S
C2237      C2238   1.405       .  A
C2238      H2253   1.085       .  S
C2239      C2240   1.402       .  A
C2239      C2244   1.411       .  A
C2240      C2241   1.403       .  A
C2240      H2255   1.085       .  S
C2241      C2242   1.420       .  A
C2241      C2245   1.445       .  S
C2242      C2243   1.407       .  A
C2243      C2244   1.398       .  A
C2243      H2256   1.085       .  S
C2244      C2246   1.445       .  S
C2245      N2249   1.158       .  T
C2246      N2250   1.157       .  T
C2247      N2252   1.157       .  T
C2248      N2251   1.157       .  T
