geometry optimzed in LAMMPS
_audit_creation_date              2020-11-30 
_audit_creation_method            'lammps2cif' 
_symmetry_space_group_name_H-M    'P1' 
_symmetry_Int_Tables_number       1 
_symmetry_cell_setting            triclinic 
loop_ 
_symmetry_equiv_pos_as_xyz 
  x,y,z 
_cell_length_a                    69.8187507 
_cell_length_b                    69.62589335250242 
_cell_length_c                    42.01060216341792 
_cell_angle_alpha                 90.05927134422632 
_cell_angle_beta                  90.01724208668692 
_cell_angle_gamma                 119.87767460719411 
loop_ 
_atom_site_label 
_atom_site_type_symbol 
_atom_site_fract_x 
_atom_site_fract_y 
_atom_site_fract_z 
_atom_site_charge 
O1          O  0.60979754  0.42231692  0.47804496    -0.87900
C2          C  0.56922398  0.40201591  0.40092644     0.88200
Mg3        Mg  0.59787333  0.41557904  0.52596451     1.58100
O4          O  0.59390361  0.45893430  0.41573369    -0.87600
O5          O  0.63043605  0.45120467  0.44812307    -0.74900
C6          C  0.52235803  0.44738195  0.53163943     0.93200
O7          O  0.56195828  0.37973749  0.46990514    -0.74700
O8          O  0.52739605  0.43388192  0.54434613    -0.82200
Mg9        Mg  0.59601044  0.39492772  0.44553958     1.58000
C10         C  0.55627716  0.48962349  0.41306213     0.93100
O11         O  0.62953142  0.40694904  0.42073371    -0.80500
H12         H  0.62095217  0.48872627  0.41959112    -0.05900
C13         C  0.53160322  0.42201223  0.45222144     0.88100
O14         O  0.60280743  0.45089054  0.52991177    -0.75000
O15         O  0.58733220  0.41316222  0.41407590    -0.87800
O16         O  0.56132361  0.47772449  0.39585234    -0.80600
C17         C  0.58604565  0.44462416  0.33245672     0.93300
C18         C  0.64076315  0.41911254  0.39748586     0.93100
Mg19       Mg  0.56374070  0.46784155  0.47753589     1.58000
O20         O  0.53177261  0.45762542  0.50613388    -0.80500
O21         O  0.59696509  0.48311502  0.45155779    -0.74800
O22         O  0.59963010  0.44133908  0.34851749    -0.80600
O23         O  0.60378097  0.37417482  0.47774934    -0.82300
O24         O  0.56226176  0.42249238  0.57640525    -0.80600
C25         C  0.60450463  0.47742082  0.42814456     0.87500
O26         O  0.57335601  0.44972885  0.50943662    -0.87800
O27         O  0.54915440  0.43921811  0.44665265    -0.87900
O28         O  0.52819573  0.41175599  0.47848872    -0.74900
Mg29       Mg  0.61331262  0.44513476  0.39945196     1.58000
O30         O  0.57223291  0.44884857  0.34615499    -0.82300
H31         H  0.63884094  0.44718880  0.49283540    -0.06000
O32         O  0.56483898  0.40267220  0.50798376    -0.87600
H33         H  0.53716791  0.37380587  0.50061084    -0.05900
H34         H  0.59804153  0.47738388  0.52840284    -0.06000
C35         C  0.55404029  0.38492549  0.49353506     0.87500
C36         C  0.62689061  0.44025528  0.47376282     0.88100
C37         C  0.59147672  0.46003450  0.52291587     0.88200
H38         H  0.51904221  0.41518913  0.43392744    -0.06000
O39         O  0.55664087  0.40986343  0.39512680    -0.75000
Mg40       Mg  0.54702977  0.41821275  0.52591789     1.58000
H41         H  0.56354446  0.38482668  0.39546917    -0.06000
C42         C  0.60009626  0.36930006  0.50707966     0.93100
O43         O  0.58629043  0.41018272  0.57754210    -0.82300
C44         C  0.57448177  0.41681128  0.59161664     0.93200
O45         O  0.63525728  0.43168172  0.38308635    -0.82300
Mg46       Mg  0.56065327  0.44445561  0.39803543     1.58200
O47         O  0.59557890  0.38091899  0.52588441    -0.80600
O48         O  0.55403579  0.48712681  0.44318271    -0.82300
O49         O  0.58507788  0.39804300  0.94816595    -0.87900
C50         C  0.61031617  0.44193322  0.02064815     0.88200
Mg51       Mg  0.59014393  0.40824997  0.89909379     1.58100
O52         O  0.55310412  0.41733526  0.01221305    -0.87600
O53         O  0.55835740  0.37870310  0.98207433    -0.74900
C54         C  0.55875757  0.48362121  0.89136690     0.93200
O55         O  0.62848930  0.44530556  0.95054639    -0.74700
O56         O  0.57188195  0.47856317  0.87757622    -0.82200
Mg57       Mg  0.61383729  0.41195145  0.97763117     1.58000
C58         C  0.52304609  0.45556096  0.01399995     0.93100
O59         O  0.60162407  0.37874599  0.00428484    -0.80500
H60         H  0.52344920  0.38995651  0.01075504    -0.05900
C61         C  0.58807385  0.47817746  0.96860764     0.88100
O62         O  0.55498998  0.40341985  0.89703685    -0.75000
O63         O  0.59829693  0.42302163  0.01020814    -0.87800
O64         O  0.53609226  0.45169856  0.03046910    -0.80600
C65         C  0.57171204  0.43022999  0.09294781     0.93300
C66         C  0.59144260  0.36904861  0.02974575     0.93100
Mg67       Mg  0.54138785  0.44486607  0.94866212     1.58000
O68         O  0.54995690  0.47560873  0.91825590    -0.80500
O69         O  0.52783675  0.41276302  0.97731457    -0.74800
O70         O  0.57444421  0.41546232  0.07893925    -0.80600
O71         O  0.63204223  0.40166243  0.94443552    -0.82300
O72         O  0.58225821  0.44261558  0.84630311    -0.80600
C73         C  0.53434128  0.40618361  0.00095881     0.87500
O74         O  0.55774507  0.43409236  0.91565146    -0.87800
O75         O  0.57145342  0.46064573  0.97617311    -0.87900
O76         O  0.59710181  0.48069205  0.94153094    -0.74900
Mg77       Mg  0.56735215  0.39835994  0.02930529     1.58000
O78         O  0.56701338  0.44321776  0.07794071    -0.82300
H79         H  0.55935601  0.36842457  0.93716324    -0.06000
O80         O  0.60423900  0.44210987  0.91439719    -0.87600
H81         H  0.63364852  0.46958800  0.91913187    -0.05900
H82         H  0.52921023  0.40917090  0.89935388    -0.06000
C83         C  0.62254574  0.45295256  0.92734633     0.87500
C84         C  0.56747048  0.38118853  0.95497787     0.88100
C85         C  0.54661657  0.41550507  0.90365824     0.88200
H86         H  0.59546997  0.49149672  0.98580064    -0.06000
O87         O  0.60311636  0.45519097  0.02558528    -0.75000
Mg88       Mg  0.58847080  0.45970109  0.89593541     1.58000
H89         H  0.62767182  0.44767378  0.02431740    -0.06000
C90         C  0.63644528  0.40597196  0.91515244     0.93100
O91         O  0.59367901  0.41796790  0.84679009    -0.82300
C92         C  0.58740233  0.42971197  0.83170942     0.93200
O93         O  0.58111759  0.37635307  0.04623371    -0.82300
Mg94       Mg  0.56877704  0.45172178  0.02557362     1.58200
O95         O  0.62479040  0.41088179  0.89710183    -0.80600
O96         O  0.52361789  0.45577327  0.98370512    -0.82300
O97         O  0.39898344  0.58348672  0.22815396    -0.87900
C98         C  0.44192188  0.60897093  0.15446142     0.88200
Mg99       Mg  0.40991589  0.58799610  0.27676501     1.58100
O100        O  0.41759931  0.55158565  0.16226294    -0.87600
O101        O  0.37936359  0.55652691  0.19466114    -0.74900
C102        C  0.48516735  0.55618087  0.27967880     0.93200
O103        O  0.44613298  0.62752419  0.22533777    -0.74700
O104        O  0.48027264  0.56952998  0.29330627    -0.82200
Mg105      Mg  0.41261044  0.61261147  0.19902369     1.58000
C106        C  0.45602670  0.52152916  0.15590507     0.93100
O107        O  0.37951159  0.60080674  0.17267837    -0.80500
H108        H  0.39071203  0.52152931  0.16241580    -0.05900
C109        C  0.47903677  0.58658683  0.20253307     0.88100
O110        O  0.40572299  0.55293019  0.27702137    -0.75000
O111        O  0.42324926  0.59702158  0.16557982    -0.87800
O112        O  0.45106181  0.53401936  0.13998216    -0.80600
C113        C  0.42777207  0.57008421  0.08145995     0.93300
C114        C  0.36911135  0.59025924  0.14775200     0.93100
Mg115      Mg  0.44646077  0.53949426  0.22252620     1.58000
O116        O  0.47756312  0.54812318  0.25226717    -0.80500
O117        O  0.41396442  0.52548675  0.19476375    -0.74800
O118        O  0.41372447  0.57282740  0.09721571    -0.80600
O119        O  0.40245434  0.63037529  0.23351678    -0.82300
O120        O  0.44542411  0.58025761  0.32564841    -0.80600
C121        C  0.40686743  0.53241980  0.17228973     0.87500
O122        O  0.43580238  0.55577683  0.25625764    -0.87800
O123        O  0.46165399  0.56968297  0.19522044    -0.87900
O124        O  0.48169770  0.59557874  0.22972745    -0.74900
Mg125      Mg  0.39815881  0.56576980  0.14707698     1.58000
O126        O  0.44113508  0.56517040  0.09482338    -0.82300
H127        H  0.36966689  0.55764309  0.23987281    -0.06000
O128        O  0.44348960  0.60258261  0.25973409    -0.87600
H129        H  0.47059688  0.63243185  0.25619787    -0.05900
H130        H  0.41126783  0.52704446  0.27263604    -0.06000
C131        C  0.45401812  0.62126536  0.24778769     0.87500
C132        C  0.38214298  0.56579755  0.22167550     0.88100
C133        C  0.41753054  0.54453372  0.26889865     0.88200
H134        H  0.49202791  0.59425129  0.18506799    -0.06000
O135        O  0.45480156  0.60154151  0.14802096    -0.75000
Mg136      Mg  0.46147286  0.58657570  0.27599286     1.58000
H137        H  0.44778374  0.62644324  0.15133738    -0.06000
C138        C  0.40579523  0.63370607  0.26322574     0.93100
O139        O  0.42063870  0.59135377  0.32894748    -0.82300
C140        C  0.43270728  0.58462423  0.34202090     0.93200
O141        O  0.37578660  0.57929204  0.13155368    -0.82300
Mg142      Mg  0.45131555  0.56703450  0.14648725     1.58200
O143        O  0.41098177  0.62189136  0.28048091    -0.80600
O144        O  0.45744926  0.52234460  0.18618634    -0.82300
O145        O  0.39572720  0.58027866  0.72875848    -0.87900
C146        C  0.43833362  0.60322226  0.65409018     0.88200
Mg147      Mg  0.40645602  0.58427521  0.77730034     1.58100
O148        O  0.41162607  0.54558310  0.66245383    -0.87600
O149        O  0.37522013  0.55342037  0.69540710    -0.74900
C150        C  0.48105332  0.55175550  0.77878315     0.93200
O151        O  0.44444231  0.62275868  0.72500863    -0.74700
O152        O  0.47601639  0.56480311  0.79284428    -0.82200
Mg153      Mg  0.41109987  0.60931087  0.69942135     1.58000
C154        C  0.44904265  0.51386495  0.65884046     0.93100
O155        O  0.37845336  0.59929080  0.67389810    -0.80500
H156        H  0.38400404  0.51611338  0.66466436    -0.05900
C157        C  0.47329454  0.57976023  0.70236415     0.88100
O158        O  0.40064815  0.54865686  0.77743172    -0.75000
O159        O  0.41981093  0.59206648  0.66601236    -0.87800
O160        O  0.44401722  0.52584415  0.64164211    -0.80600
C161        C  0.42337012  0.56491241  0.58139782     0.93300
C162        C  0.36710478  0.58902737  0.64960501     0.93100
Mg163      Mg  0.44017337  0.53339511  0.72412137     1.58000
O164        O  0.47171194  0.54209614  0.75288050    -0.80500
O165        O  0.40747191  0.52003229  0.69665245    -0.74800
O166        O  0.40947840  0.56823444  0.59684508    -0.80600
O167        O  0.40334664  0.62894102  0.73405405    -0.82300
O168        O  0.44132086  0.57519628  0.82573401    -0.80600
C169        C  0.40046412  0.52681073  0.67379548     0.87500
O170        O  0.43047230  0.55047548  0.75733454    -0.87800
O171        O  0.45569234  0.56291093  0.69567571    -0.87900
O172        O  0.47643152  0.58924341  0.72924701    -0.74900
Mg173      Mg  0.39356317  0.56154463  0.64738387     1.58000
O174        O  0.43536787  0.55832806  0.59505793    -0.82300
H175        H  0.36594411  0.55526339  0.74057839    -0.06000
O176        O  0.43974843  0.59754884  0.76019022    -0.87600
H177        H  0.46793446  0.62643631  0.75677859    -0.05900
H178        H  0.40517418  0.52212316  0.77336829    -0.06000
C179        C  0.45128388  0.61603706  0.74813976     0.87500
C180        C  0.37843691  0.56293690  0.72234833     0.88100
C181        C  0.41202633  0.53971172  0.76971028     0.88200
H182        H  0.48610104  0.58700492  0.68450528    -0.06000
O183        O  0.45038145  0.59489017  0.64737279    -0.75000
Mg184      Mg  0.45691855  0.58115381  0.77606042     1.58000
H185        H  0.44479717  0.62076232  0.65041302    -0.06000
C186        C  0.40625147  0.63208616  0.76389360     0.93100
O187        O  0.41691012  0.58677667  0.82914382    -0.82300
C188        C  0.42903255  0.58009968  0.84213748     0.93200
O189        O  0.37239989  0.57703918  0.63288931    -0.82300
Mg190      Mg  0.44533227  0.55977450  0.64689301     1.58200
O191        O  0.40970742  0.61914768  0.78139054    -0.80600
O192        O  0.45032446  0.51545757  0.68901280    -0.82300
O193        O  0.18726010  0.59869761  0.04902942    -0.87900
C194        C  0.17035049  0.55781570  0.97279060     0.88200
Mg195      Mg  0.17982070  0.58707340  0.09671122     1.58100
O196        O  0.13859615  0.58364930  0.98021290    -0.87600
O197        O  0.18085726  0.61960526  0.01660055    -0.74900
C198        C  0.07210202  0.51600470  0.09467827     0.93200
O199        O  0.18142492  0.55029309  0.04411662    -0.74700
O200        O  0.08974670  0.52033590  0.10942131    -0.82200
Mg201      Mg  0.20204172  0.58439466  0.01992286     1.58000
C202        C  0.07015449  0.54621860  0.97082106     0.93100
O203        O  0.22434988  0.61769406  0.99661415    -0.80500
H204        H  0.13616955  0.61105467  0.98009088    -0.05900
C205        C  0.10959035  0.52122699  0.01900317     0.88100
O206        O  0.15024398  0.59340599  0.09611288    -0.75000
O207        O  0.17709280  0.57617270  0.98524124    -0.87800
O208        O  0.08770624  0.55102963  0.95535935    -0.80600
C209        C  0.14877732  0.57561573  0.89971070     0.93300
C210        C  0.22569510  0.63009827  0.97358289     0.93100
Mg211      Mg  0.09651756  0.55496629  0.03857564     1.58000
O212        O  0.07260829  0.52376603  0.06704630    -0.80500
O213        O  0.11607180  0.58775835  0.01180822    -0.74800
O214        O  0.16537025  0.58895447  0.91647089    -0.80600
O215        O  0.22914130  0.59235064  0.05538666    -0.82300
O216        O  0.13501022  0.55334903  0.14416596    -0.80600
C217        C  0.13039272  0.59470395  0.98982529     0.87500
O218        O  0.12264815  0.56449143  0.07353076    -0.87800
O219        O  0.11113057  0.53913171  0.01162795    -0.87900
O220        O  0.11469017  0.51785603  0.04667553    -0.74900
Mg221      Mg  0.17265410  0.60272851  0.96766109     1.58000
O222        O  0.13033564  0.56185673  0.91231576    -0.82300
H223        H  0.19050938  0.62773296  0.06256204    -0.06000
O224        O  0.15978165  0.55396460  0.07858076    -0.87600
H225        H  0.16043276  0.52572575  0.07366860    -0.05900
H226        H  0.11978128  0.58989925  0.09003221    -0.06000
C227        C  0.16697397  0.54267126  0.06614386     0.87500
C228        C  0.18665537  0.61583655  0.04348130     0.88100
C229        C  0.13026530  0.58273583  0.08672418     0.88200
H230        H  0.10423960  0.50830298  0.00129878    -0.06000
O231        O  0.15021711  0.54549332  0.96528957    -0.75000
Mg232      Mg  0.12568719  0.53762437  0.09365151     1.58000
H233        H  0.18169407  0.55168926  0.96954773    -0.06000
C234        C  0.22841814  0.58840142  0.08496274     0.93100
O235        O  0.17134631  0.57568018  0.14752117    -0.82300
C236        C  0.15255170  0.56457326  0.16058884     0.93200
O237        O  0.20921636  0.62514939  0.95548038    -0.82300
Mg238      Mg  0.12009619  0.55019373  0.96314330     1.58200
O239        O  0.21136131  0.58363318  0.10172916    -0.80600
O240        O  0.06941431  0.54492461  0.00112508    -0.82300
O241        O  0.18702646  0.60078894  0.54748107    -0.87900
C242        C  0.16635845  0.55783026  0.47312951     0.88200
Mg243      Mg  0.18009024  0.59052321  0.59562907     1.58100
O244        O  0.13724553  0.58646464  0.47985660    -0.87600
O245        O  0.18113420  0.62168647  0.51425937    -0.74900
C246        C  0.07175179  0.52204194  0.59695912     0.93200
O247        O  0.17842958  0.55101385  0.54425250    -0.74700
O248        O  0.08963457  0.52615262  0.61056389    -0.82200
Mg249      Mg  0.19954446  0.58426454  0.51857948     1.58000
C250        C  0.06880556  0.55220511  0.47315217     0.93100
O251        O  0.22248318  0.61695846  0.49465135    -0.80500
H252        H  0.13664284  0.61484596  0.47941598    -0.05900
C253        C  0.10710220  0.52510875  0.52094807     0.88100
O254        O  0.15139439  0.59822265  0.59477797    -0.75000
O255        O  0.17414807  0.57654694  0.48479854    -0.87800
O256        O  0.08578437  0.55556825  0.45736601    -0.80600
C257        C  0.14479709  0.57519142  0.39944936     0.93300
C258        C  0.22413902  0.62917431  0.47114544     0.93100
Mg259      Mg  0.09592703  0.56049954  0.54008516     1.58000
O260        O  0.07151332  0.52989875  0.56963179    -0.80500
O261        O  0.11637034  0.59264260  0.51215420    -0.74800
O262        O  0.16205285  0.58858195  0.41515608    -0.80600
O263        O  0.22664952  0.59131515  0.55300750    -0.82300
O264        O  0.13500850  0.55892942  0.64447471    -0.80600
C265        C  0.13021324  0.59853584  0.48957794     0.87500
O266        O  0.12255459  0.56948434  0.57397915    -0.87800
O267        O  0.10878679  0.54302249  0.51323058    -0.87900
O268        O  0.11295120  0.52210285  0.54829130    -0.74900
Mg269      Mg  0.17112587  0.60366390  0.46605793     1.58000
O270        O  0.12641903  0.56252224  0.41302299    -0.82300
H271        H  0.19227546  0.63083266  0.55941834    -0.06000
O272        O  0.15874441  0.55730561  0.57903817    -0.87600
H273        H  0.15768478  0.52811094  0.57602749    -0.05900
H274        H  0.12148558  0.59613870  0.58934574    -0.06000
C275        C  0.16477902  0.54489454  0.56722850     0.87500
C276        C  0.18733114  0.61830785  0.54112382     0.88100
C277        C  0.13122102  0.58811335  0.58621703     0.88200
H278        H  0.10111668  0.51186778  0.50364486    -0.06000
O279        O  0.14602624  0.54619917  0.46627317    -0.75000
Mg280      Mg  0.12499872  0.54243052  0.59453245     1.58000
H281        H  0.17697664  0.55079296  0.46999229    -0.06000
C282        C  0.22757710  0.58945168  0.58286887     0.93100
O283        O  0.17160618  0.58031307  0.64655867    -0.82300
C284        C  0.15292443  0.56992384  0.66015249     0.93200
O285        O  0.20773014  0.62431668  0.45295992    -0.82300
Mg286      Mg  0.11707363  0.55275628  0.46445133     1.58200
O287        O  0.21141956  0.58607414  0.60092560    -0.80600
O288        O  0.06849409  0.55147363  0.50351143    -0.82300
O289        O  0.81439665  0.39521395  0.29528960    -0.87900
C290        C  0.83400518  0.43337910  0.21659722     0.88200
Mg291      Mg  0.82105653  0.40827135  0.34232732     1.58100
O292        O  0.86399072  0.40621531  0.23078493    -0.87600
O293        O  0.82009485  0.37235820  0.26604778    -0.74900
C294        C  0.92903558  0.47750182  0.34470846     0.93200
O295        O  0.82208008  0.44389106  0.28525849    -0.74700
O296        O  0.91124119  0.47416961  0.35796335    -0.82200
Mg297      Mg  0.80089930  0.40912061  0.26314948     1.58000
C298        C  0.93275201  0.44232815  0.22481709     0.93100
O299        O  0.77808658  0.37500608  0.24147240    -0.80500
H300        H  0.86529217  0.37832939  0.23529256    -0.05900
C301        C  0.89395653  0.47005662  0.26545760     0.88100
O302        O  0.84970115  0.40069961  0.34594650    -0.75000
O303        O  0.82633828  0.41532517  0.23023529    -0.87800
O304        O  0.91546663  0.43678141  0.20824859    -0.80600
C305        C  0.85636823  0.41309657  0.14786411     0.93300
C306        C  0.77699348  0.36201002  0.21933529     0.93100
Mg307      Mg  0.90514518  0.43636814  0.29075982     1.58000
O308        O  0.92889422  0.46841486  0.31825515    -0.80500
O309        O  0.88522961  0.40272751  0.26585576    -0.74800
O310        O  0.83946085  0.40021747  0.16443289    -0.80600
O311        O  0.77351727  0.40378815  0.29685253    -0.82300
O312        O  0.86451973  0.44304762  0.39096433    -0.80600
C313        C  0.87136598  0.39514766  0.24319634     0.87500
O314        O  0.87853914  0.42873878  0.32403060    -0.87800
O315        O  0.89164950  0.45154548  0.26029163    -0.87900
O316        O  0.88860900  0.47483895  0.29198204    -0.74900
Mg317      Mg  0.83019096  0.38773901  0.21623858     1.58000
O318        O  0.87477912  0.42651404  0.16097544    -0.82300
H319        H  0.80925956  0.36609310  0.31170549    -0.06000
O320        O  0.84235005  0.44062375  0.32260998    -0.87600
H321        H  0.84306289  0.46922123  0.31392255    -0.05900
H322        H  0.87997468  0.40328689  0.34355957    -0.06000
C323        C  0.83605904  0.45189827  0.30788879     0.87500
C324        C  0.81411044  0.37741655  0.29182317     0.88100
C325        C  0.87000906  0.41078177  0.33815629     0.88200
H326        H  0.90025180  0.48232415  0.24674560    -0.06000
O327        O  0.85439959  0.44498827  0.21019134    -0.75000
Mg328      Mg  0.87580594  0.45685202  0.33993312     1.58000
H329        H  0.82320057  0.43992906  0.21130692    -0.06000
C330        C  0.77419661  0.40941155  0.32581523     0.93100
O331        O  0.82830985  0.42064407  0.39296699    -0.82300
C332        C  0.84681226  0.43189724  0.40691796     0.93200
O333        O  0.79372684  0.36614714  0.20228896    -0.82300
Mg334      Mg  0.88374872  0.43909719  0.21208996     1.58200
O335        O  0.79086340  0.41381206  0.34318038    -0.80600
O336        O  0.93294665  0.44472584  0.25496155    -0.82300
O337        O  0.81335987  0.39654903  0.79615439    -0.87900
C338        C  0.82816841  0.43964934  0.72330745     0.88200
Mg339      Mg  0.82163898  0.40617648  0.84477986     1.58100
O340        O  0.85972818  0.41351036  0.72564816    -0.87600
O341        O  0.81761871  0.37594364  0.76051171    -0.74900
C342        C  0.92940295  0.47846042  0.84185827     0.93200
O343        O  0.81957499  0.44503057  0.79628747    -0.74700
O344        O  0.91202887  0.47380541  0.85761062    -0.82200
Mg345      Mg  0.79816611  0.41182278  0.77024727     1.58000
C346        C  0.92750619  0.45146542  0.71414717     0.93100
O347        O  0.77481626  0.37919784  0.74522539    -0.80500
H348        H  0.86192632  0.38600148  0.72374178    -0.05900
C349        C  0.89003058  0.47501831  0.76921101     0.88100
O350        O  0.85129066  0.40028441  0.84043897    -0.75000
O351        O  0.82181573  0.42089530  0.73394864    -0.87800
O352        O  0.90928896  0.44632403  0.70056317    -0.80600
C353        C  0.84886499  0.42496327  0.64699989     0.93300
C354        C  0.77269844  0.36779847  0.72036330     0.93100
Mg355      Mg  0.90354036  0.44093867  0.78358250     1.58000
O356        O  0.92833445  0.47136768  0.81351099    -0.80500
O357        O  0.88290675  0.40889712  0.75528949    -0.74800
O358        O  0.83256484  0.41030832  0.66292200    -0.80600
O359        O  0.77254931  0.40333086  0.80723174    -0.82300
O360        O  0.86723560  0.43915430  0.89212892    -0.80600
C361        C  0.86803277  0.40226540  0.73402928     0.87500
O362        O  0.87858621  0.43045368  0.82005297    -0.87800
O363        O  0.88792371  0.45715970  0.76021523    -0.87900
O364        O  0.88576103  0.47784006  0.79766892    -0.74900
Mg365      Mg  0.82560335  0.39480608  0.71310976     1.58000
O366        O  0.86724698  0.43849246  0.65989372    -0.82300
H367        H  0.80869503  0.36647127  0.80628092    -0.06000
O368        O  0.84128975  0.44024538  0.82937567    -0.87600
H369        H  0.84085500  0.46870428  0.82679261    -0.05900
H370        H  0.88190385  0.40459555  0.83273937    -0.06000
C371        C  0.83410362  0.45191261  0.81824247     0.87500
C372        C  0.81277937  0.37911031  0.78845538     0.88100
C373        C  0.87123829  0.41167197  0.83127081     0.88200
H374        H  0.89516213  0.48837956  0.75231141    -0.06000
O375        O  0.84824357  0.45264908  0.71640498    -0.75000
Mg376      Mg  0.87567640  0.45656423  0.84317251     1.58000
H377        H  0.81653543  0.44556738  0.72154211    -0.06000
C378        C  0.77291732  0.40537901  0.83724531     0.93100
O379        O  0.83124461  0.41510347  0.89654844    -0.82300
C380        C  0.85038721  0.42639430  0.90881310     0.93200
O381        O  0.78879927  0.37323338  0.70133617    -0.82300
Mg382      Mg  0.87797798  0.44772095  0.71133928     1.58200
O383        O  0.78986303  0.40884538  0.85337788    -0.80600
O384        O  0.92947567  0.45200281  0.74435260    -0.82300
O385        O  0.59857826  0.18372657  0.11494967    -0.87900
C386        C  0.56159858  0.16282434  0.19563291     0.88200
Mg387      Mg  0.58477603  0.17734353  0.06820589     1.58100
O388        O  0.58791215  0.13238800  0.17868496    -0.87600
O389        O  0.62114530  0.17672120  0.14270162    -0.74900
C390        C  0.51390880  0.06944154  0.06630592     0.93200
O391        O  0.55005426  0.17601486  0.12759550    -0.74700
O392        O  0.51722972  0.08753619  0.05417525    -0.82200
Mg393      Mg  0.58494496  0.19658589  0.14882299     1.58000
C394        C  0.55120714  0.06294619  0.18214553     0.93100
O395        O  0.61913169  0.21916956  0.16955462    -0.80500
H396        H  0.61551688  0.13095419  0.17215440    -0.05900
C397        C  0.52396734  0.10420368  0.14669450     0.88100
O398        O  0.59161261  0.14819191  0.06360877    -0.75000
O399        O  0.57910851  0.17042483  0.18065468    -0.87800
O400        O  0.55694140  0.07970395  0.20036024    -0.80600
C401        C  0.58300339  0.14007223  0.26242990     0.93300
C402        C  0.63237275  0.21994842  0.19093562     0.93100
Mg403      Mg  0.55666364  0.09229282  0.11806335     1.58000
O404        O  0.52422459  0.06881865  0.09102389    -0.80500
O405        O  0.59063364  0.11167345  0.14185313    -0.74800
O406        O  0.59516473  0.15707077  0.24543117    -0.80600
O407        O  0.58998849  0.22455122  0.11643585    -0.82300
O408        O  0.54913160  0.13326465  0.02028902    -0.80600
C409        C  0.59862117  0.12510200  0.16499697     0.87500
O410        O  0.56385569  0.11943441  0.08618854    -0.87800
O411        O  0.54202205  0.10526580  0.15085544    -0.87900
O412        O  0.51923672  0.11041751  0.12082925    -0.74900
Mg413      Mg  0.60673447  0.16633541  0.19303402     1.58000
O414        O  0.56947012  0.12143205  0.24972576    -0.82300
H415        H  0.62723760  0.18845387  0.09749202    -0.06000
O416        O  0.55286102  0.15630611  0.08890677    -0.87600
H417        H  0.52459638  0.15584300  0.09863736    -0.05900
H418        H  0.58869696  0.11769266  0.06536242    -0.06000
C419        C  0.54186109  0.16255710  0.10438354     0.87500
C420        C  0.61614177  0.18349461  0.11761688     0.88100
C421        C  0.58150217  0.12782568  0.07138208     0.88200
H422        H  0.51208333  0.09834354  0.16587862    -0.06000
O423        O  0.55030107  0.14241524  0.20255053    -0.75000
Mg424      Mg  0.53594911  0.12279800  0.07190919     1.58000
H425        H  0.55530086  0.17370191  0.20193058    -0.06000
C426        C  0.58496962  0.22478970  0.08744345     0.93100
O427        O  0.57134740  0.16972468  0.01775178    -0.82300
C428        C  0.55997738  0.15103363  0.00417897     0.93200
O429        O  0.62880700  0.20278948  0.20659175    -0.82300
Mg430      Mg  0.55553048  0.11253079  0.19877643     1.58200
O431        O  0.58031919  0.20860196  0.06860775    -0.80600
O432        O  0.54919250  0.06412351  0.15219393    -0.82300
O433        O  0.60208912  0.18616590  0.61685288    -0.87900
C434        C  0.55725928  0.17074847  0.68782056     0.88200
Mg435      Mg  0.59366559  0.17971037  0.56766730     1.58100
O436        O  0.58028360  0.13622510  0.68451879    -0.87600
O437        O  0.62010180  0.17847709  0.65272025    -0.74900
C438        C  0.51683023  0.07358886  0.56212041     0.93200
O439        O  0.55493648  0.18283319  0.61450184    -0.74700
O440        O  0.52324059  0.09178196  0.54756786    -0.82200
Mg441      Mg  0.58735066  0.20185361  0.64301610     1.58000
C442        C  0.53936234  0.06820804  0.69031821     0.93100
O443        O  0.61907943  0.22308602  0.67056316    -0.80500
H444        H  0.60638944  0.13180468  0.68750520    -0.05900
C445        C  0.52072202  0.11137409  0.63721581     0.88100
O446        O  0.59743447  0.14858599  0.57073812    -0.75000
O447        O  0.57593682  0.17643222  0.67766764    -0.87800
O448        O  0.54424742  0.08588472  0.70564033    -0.80600
C449        C  0.56859511  0.14523478  0.76386627     0.93300
C450        C  0.62943540  0.22343566  0.69565665     0.93100
Mg451      Mg  0.55284325  0.09521984  0.62308585     1.58000
O452        O  0.52278073  0.07286680  0.59064539    -0.80500
O453        O  0.58412156  0.11304186  0.65368816    -0.74800
O454        O  0.58373646  0.16187323  0.74896078    -0.80600
O455        O  0.59866553  0.22943227  0.60779385    -0.82300
O456        O  0.56131766  0.13618891  0.51662084    -0.80600
C457        C  0.59075971  0.12710325  0.67614698     0.87500
O458        O  0.56597359  0.12173521  0.58870147    -0.87800
O459        O  0.53745313  0.11149825  0.64719477    -0.87900
O460        O  0.51950168  0.11710403  0.60887565    -0.74900
Mg461      Mg  0.60018823  0.16996508  0.69910605     1.58000
O462        O  0.55436036  0.12775384  0.74949501    -0.82300
H463        H  0.63146994  0.18889255  0.60802826    -0.06000
O464        O  0.55940472  0.16114520  0.58090232    -0.87600
H465        H  0.53195262  0.16339750  0.58183120    -0.05900
H466        H  0.59110291  0.11701522  0.57703014    -0.06000
C467        C  0.54821174  0.16898165  0.59161307     0.87500
C468        C  0.61847866  0.18499303  0.62513903     0.88100
C469        C  0.58490860  0.12845640  0.57864170     0.88200
H470        H  0.50695755  0.10669838  0.65317077    -0.06000
O471        O  0.54343308  0.15067846  0.69388145    -0.75000
Mg472      Mg  0.54203726  0.12739581  0.56456249     1.58000
H473        H  0.55220855  0.18305598  0.69010070    -0.06000
C474        C  0.59673354  0.22930336  0.57778357     0.93100
O475        O  0.58585875  0.17227011  0.51523539    -0.82300
C476        C  0.57477233  0.15363352  0.50143389     0.93200
O477        O  0.62299295  0.20632905  0.71311787    -0.82300
Mg478      Mg  0.54577288  0.11919317  0.69709763     1.58200
O479        O  0.59258644  0.21238894  0.56093246    -0.80600
O480        O  0.53955660  0.06771453  0.66002465    -0.82300
O481        O  0.39314571  0.81230962  0.36886451    -0.87900
C482        C  0.43500790  0.83227509  0.44445381     0.88200
Mg483      Mg  0.40367349  0.81756119  0.32041243     1.58100
O484        O  0.40943675  0.86395676  0.43232560    -0.87600
O485        O  0.37248068  0.81945828  0.40054741    -0.74900
C486        C  0.47835521  0.92444133  0.31285219     0.93200
O487        O  0.44152836  0.81820617  0.37419156    -0.74700
O488        O  0.47255225  0.90570603  0.30045034    -0.82200
Mg489      Mg  0.40807682  0.79891401  0.39967907     1.58000
C490        C  0.44679678  0.93264398  0.43538718     0.93100
O491        O  0.37536167  0.77703336  0.42489692    -0.80500
H492        H  0.38222768  0.86651782  0.42943423    -0.05900
C493        C  0.47124599  0.88992038  0.39245002     0.88100
O494        O  0.39843080  0.84781419  0.31809172    -0.75000
O495        O  0.41672034  0.82531308  0.43191540    -0.87800
O496        O  0.44241612  0.91557851  0.45181974    -0.80600
C497        C  0.41905001  0.85762386  0.51453288     0.93300
C498        C  0.36398900  0.77679576  0.44872374     0.93100
Mg499      Mg  0.43864571  0.90381355  0.36989898     1.58000
O500        O  0.47026992  0.92604560  0.33944707    -0.80500
O501        O  0.40593683  0.88532464  0.39737051    -0.74800
O502        O  0.40526529  0.84041589  0.49915357    -0.80600
O503        O  0.40018068  0.77074811  0.36694194    -0.82300
O504        O  0.43732469  0.85985386  0.26949017    -0.80600
C505        C  0.39863018  0.87181965  0.42050194     0.87500
O506        O  0.42829853  0.87610941  0.33761213    -0.87800
O507        O  0.45384031  0.88958799  0.39922394    -0.87900
O508        O  0.47406897  0.88321859  0.36561620    -0.74900
Mg509      Mg  0.39054703  0.83042644  0.44856744     1.58000
O510        O  0.43263739  0.87554758  0.50047021    -0.82300
H511        H  0.36351579  0.80741522  0.35570386    -0.06000
O512        O  0.43706792  0.83768686  0.33687475    -0.87600
H513        H  0.46523998  0.83711870  0.34217577    -0.05900
H514        H  0.40311036  0.87901672  0.32053571    -0.06000
C515        C  0.44851970  0.83110099  0.35029889     0.87500
C516        C  0.37584838  0.81255206  0.37428837     0.88100
C517        C  0.40985617  0.86827183  0.32512266     0.88200
H518        H  0.48421603  0.89557010  0.41011001    -0.06000
O519        O  0.44764018  0.85269686  0.45013569    -0.75000
Mg520      Mg  0.45401585  0.87082279  0.31906513     1.58000
H521        H  0.44081033  0.82078731  0.44934775    -0.06000
C522        C  0.40287475  0.76976844  0.33724868     0.93100
O523        O  0.41378046  0.82349744  0.26844108    -0.82300
C524        C  0.42478412  0.84200656  0.25437046     0.93200
O525        O  0.36917171  0.79435871  0.46450740    -0.82300
Mg526      Mg  0.44320936  0.88302985  0.44833897     1.58200
O527        O  0.40630882  0.78567633  0.31875300    -0.80600
O528        O  0.44858171  0.93261092  0.40510364    -0.82300
O529        O  0.39753773  0.81289723  0.86701695    -0.87900
C530        C  0.43799454  0.83316768  0.94402080     0.88200
Mg531      Mg  0.40884704  0.81951984  0.81877872     1.58100
O532        O  0.40897119  0.86151487  0.93367232    -0.87600
O533        O  0.37510985  0.81739893  0.89891968    -0.74900
C534        C  0.47601238  0.92815973  0.81853984     0.93200
O535        O  0.44698958  0.82220921  0.87357516    -0.74700
O536        O  0.47245563  0.91070579  0.80385196    -0.82200
Mg537      Mg  0.41325517  0.80035968  0.89761444     1.58000
C538        C  0.44166548  0.92983639  0.93935129     0.93100
O539        O  0.38016358  0.77644945  0.92048395    -0.80500
H540        H  0.38029369  0.86129050  0.93098295    -0.05900
C541        C  0.47134799  0.89266015  0.89485311     0.88100
O542        O  0.40055647  0.84774557  0.81712643    -0.75000
O543        O  0.41972098  0.82538149  0.93112266    -0.87800
O544        O  0.43845077  0.91291103  0.95532764    -0.80600
C545        C  0.41944410  0.85433509  0.01514218     0.93300
C546        C  0.36780778  0.77455354  0.94385381     0.93100
Mg547      Mg  0.43593940  0.90268078  0.87304403     1.58000
O548        O  0.46701105  0.92731723  0.84532240    -0.80500
O549        O  0.40324556  0.88161806  0.89912083    -0.74800
O550        O  0.40644241  0.83704589  0.99907789    -0.80600
O551        O  0.40752696  0.77356378  0.86391999    -0.82300
O552        O  0.44079788  0.86403323  0.76966394    -0.80600
C553        C  0.39694940  0.86803677  0.92211783     0.87500
O554        O  0.42854465  0.87651976  0.83915386    -0.87800
O555        O  0.45297888  0.89014827  0.90154303    -0.87900
O556        O  0.47544840  0.88752200  0.86763402    -0.74900
Mg557      Mg  0.39200809  0.82773021  0.94795077     1.58000
O558        O  0.43139319  0.87298016  0.00170803    -0.82300
H559        H  0.36758520  0.80674887  0.85323024    -0.06000
O560        O  0.44172003  0.84129536  0.83634334    -0.87600
H561        H  0.47091767  0.84307589  0.84315509    -0.05900
H562        H  0.40267835  0.87783687  0.82120477    -0.06000
C563        C  0.45381835  0.83571048  0.85030809     0.87500
C564        C  0.37959385  0.81187920  0.87225686     0.88100
C565        C  0.41044565  0.86796960  0.82557000     0.88200
H566        H  0.48410994  0.89892306  0.91286370    -0.06000
O567        O  0.44944396  0.85358760  0.95067980    -0.75000
Mg568      Mg  0.45641892  0.87497733  0.82026301     1.58000
H569        H  0.44484538  0.82248394  0.94836557    -0.06000
C570        C  0.41071507  0.77294504  0.83435954     0.93100
O571        O  0.41968987  0.82739201  0.76722225    -0.82300
C572        C  0.42977784  0.84617934  0.75361603     0.93200
O573        O  0.37175366  0.79107839  0.96141365    -0.82300
Mg574      Mg  0.44221137  0.88213110  0.95025598     1.58200
O575        O  0.41416334  0.78893689  0.81595319    -0.80600
O576        O  0.44322876  0.93006575  0.90915688    -0.82300
C577        C  0.42633299  0.83457471  0.66380781    -0.11400
C578        C  0.42542152  0.85284968  0.65176689     0.11200
C579        C  0.42532143  0.86854795  0.67308192    -0.03200
C580        C  0.42705726  0.86581873  0.70600059    -0.05900
C581        C  0.42821144  0.84762336  0.71829320    -0.16700
C582        C  0.42776696  0.83160333  0.69672558     0.02200
C583        C  0.42419268  0.85478302  0.61661217     0.12200
C584        C  0.42311724  0.88793246  0.66107976     0.62800
H585        H  0.42708975  0.87776270  0.72256212     0.12200
C586        C  0.42948394  0.81180147  0.70796586     0.54900
H587        H  0.42593236  0.82259337  0.64695848     0.08000
C588        C  0.44324970  0.86361713  0.59712090    -0.05800
C589        C  0.44078815  0.86458590  0.56399072    -0.06600
C590        C  0.41996003  0.85659241  0.54980198    -0.16100
C591        C  0.40087136  0.84786797  0.56940436    -0.01700
C592        C  0.40337404  0.84693332  0.60256914    -0.09300
C593        C  0.46603600  0.87161518  0.61121059     0.65000
H594        H  0.45516175  0.87112879  0.54869518     0.10400
C595        C  0.37808136  0.84034572  0.55567824     0.63400
H596        H  0.38903275  0.84000851  0.61795907     0.07800
F597        F  0.43153784  0.80007848  0.68281424    -0.19700
F598        F  0.41068745  0.79744116  0.72470942    -0.15900
F599        F  0.44790080  0.81894705  0.72716689    -0.19400
F600        F  0.40321423  0.88016051  0.64534423    -0.22800
F601        F  0.44015353  0.90065142  0.64036151    -0.24200
F602        F  0.42373790  0.90145306  0.68571454    -0.18200
F603        F  0.37135699  0.82161403  0.53725279    -0.20700
F604        F  0.37863501  0.85704576  0.53718743    -0.21900
F605        F  0.36245854  0.83526045  0.57931864    -0.19100
F606        F  0.48240425  0.88059038  0.58825515    -0.19100
F607        F  0.46682940  0.85407510  0.62522535    -0.23000
F608        F  0.47064961  0.88771820  0.63392629    -0.24600
C609        C  0.41268104  0.85488548  0.17133493    -0.11400
C610        C  0.42087950  0.84403336  0.15233315     0.11200
C611        C  0.43023640  0.83225535  0.16692328    -0.03200
C612        C  0.43089914  0.83164533  0.20043296    -0.05900
C613        C  0.42299049  0.84280839  0.21938336    -0.16700
C614        C  0.41334201  0.85426997  0.20477044     0.02200
C615        C  0.42013237  0.84609156  0.11717808     0.12200
C616        C  0.44003199  0.82095691  0.14720879     0.62800
H617        H  0.43814389  0.82292185  0.21215048     0.12200
C618        C  0.40316436  0.86516850  0.22448943     0.54900
H619        H  0.40577414  0.86392683  0.15963607     0.08000
C620        C  0.40074007  0.83299133  0.09921977    -0.05800
C621        C  0.40130218  0.83627693  0.06607684    -0.06600
C622        C  0.42040645  0.85247409  0.05047744    -0.16100
C623        C  0.43980669  0.86576804  0.06880875    -0.01700
C624        C  0.43918115  0.86226652  0.10190144    -0.09300
C625        C  0.37952721  0.81572611  0.11505770     0.65000
H626        H  0.38657246  0.82633753  0.05207883     0.10400
C627        C  0.46129256  0.88334245  0.05390433     0.63400
H628        H  0.45362119  0.87231921  0.11640115     0.07800
F629        F  0.39292225  0.87370221  0.20561911    -0.19700
F630        F  0.41933942  0.88233631  0.24219761    -0.15900
F631        F  0.38746189  0.84971824  0.24479180    -0.19400
F632        F  0.45874649  0.83677784  0.13174673    -0.22800
F633        F  0.42492801  0.80709655  0.12483296    -0.24200
F634        F  0.44590074  0.80833965  0.16591634    -0.18200
F635        F  0.45875833  0.90060456  0.04263055    -0.20700
F636        F  0.46723590  0.87422755  0.02918816    -0.21900
F637        F  0.47851445  0.89209280  0.07561982    -0.19100
F638        F  0.36290765  0.80407284  0.09308073    -0.19100
F639        F  0.37215885  0.82592428  0.13605584    -0.23000
F640        F  0.38322883  0.80070822  0.13153944    -0.24600
C641        C  0.50795349  0.00869334  0.72042098    -0.11400
C642        C  0.51853601  0.01079701  0.74958363     0.11200
C643        C  0.53702056  0.03127047  0.75825224    -0.03200
C644        C  0.54356476  0.04953665  0.73787201    -0.05900
C645        C  0.53263817  0.04766704  0.70886961    -0.16700
C646        C  0.51455072  0.02679963  0.69980836     0.02200
C647        C  0.50937845  0.99105939  0.77048187     0.12200
C648        C  0.55002359  0.03359059  0.78841208     0.62800
H649        H  0.55743354  0.06548388  0.74436577     0.12200
C650        C  0.50160050  0.02364619  0.66928102     0.54900
H651        H  0.49408761  0.99265300  0.71426357     0.08000
C652        C  0.49113949  0.98555533  0.79064065    -0.05800
C653        C  0.48174228  0.96540123  0.80724413    -0.06600
C654        C  0.48921716  0.95016061  0.80311885    -0.16100
C655        C  0.50772370  0.95588085  0.78316031    -0.01700
C656        C  0.51762712  0.97646397  0.76739779    -0.09300
C657        C  0.48093453  0.00036495  0.79339966     0.65000
H658        H  0.46750443  0.96080802  0.82226380     0.10400
C659        C  0.51690006  0.94041642  0.77798503     0.63400
H660        H  0.53135163  0.98095881  0.75133617     0.07800
F661        F  0.48323615  0.00267574  0.66725852    -0.19700
F662        F  0.51486491  0.02643249  0.64327732    -0.15900
F663        F  0.49433058  0.03883785  0.66797666    -0.19400
F664        F  0.55962195  0.02042774  0.78603197    -0.22800
F665        F  0.53629722  0.02702654  0.81466850    -0.24200
F666        F  0.56662774  0.05523401  0.79337157    -0.18200
F667        F  0.50250643  0.92271276  0.75925450    -0.20700
F668        F  0.51976028  0.93271694  0.80692713    -0.21900
F669        F  0.53717806  0.95098479  0.76277088    -0.19100
F670        F  0.46388546  0.99229848  0.81534055    -0.19100
F671        F  0.47247754  0.00168966  0.76425510    -0.23000
F672        F  0.49665995  0.02140381  0.80293046    -0.24600
C673        C  0.45338411  0.97469973  0.49979343    -0.11400
C674        C  0.46820139  0.99463859  0.48490407     0.11200
C675        C  0.47397314  0.99437507  0.45264781    -0.03200
C676        C  0.46549327  0.97384335  0.43687579    -0.05900
C677        C  0.45171687  0.95359590  0.45231730    -0.16700
C678        C  0.44470113  0.95413286  0.48406908     0.02200
C679        C  0.47973007  0.01491697  0.50506517     0.12200
C680        C  0.48950712  0.01565041  0.43517445     0.62800
H681        H  0.47057510  0.97347302  0.41265385     0.12200
C682        C  0.42832503  0.93335423  0.50186051     0.54900
H683        H  0.44941951  0.97530933  0.52456712     0.08000
C684        C  0.47020895  0.02802470  0.51370877    -0.05800
C685        C  0.48261997  0.04702686  0.53281044    -0.06600
C686        C  0.50368913  0.05262689  0.54425487    -0.16100
C687        C  0.51290770  0.03916928  0.53612267    -0.01700
C688        C  0.50062909  0.02041676  0.51687589    -0.09300
C689        C  0.44702973  0.02179670  0.50312600     0.65000
H690        H  0.47593756  0.05760409  0.53913931     0.10400
C691        C  0.53601489  0.04507441  0.54676356     0.63400
H692        H  0.50735546  0.00987315  0.51053296     0.07800
F693        F  0.42058358  0.93838606  0.52916088    -0.19700
F694        F  0.43834195  0.92137453  0.51092170    -0.15900
F695        F  0.41027173  0.92043991  0.48269245    -0.19400
F696        F  0.51008108  0.02580549  0.44943169    -0.22800
F697        F  0.48117353  0.02995181  0.43587592    -0.24200
F698        F  0.49217341  0.01175530  0.40359871    -0.18200
F699        F  0.53669651  0.04395121  0.57955655    -0.20700
F700        F  0.55104842  0.06631220  0.53691384    -0.21900
F701        F  0.54245872  0.03079776  0.53413149    -0.19100
F702        F  0.44126439  0.03721578  0.51300400    -0.19100
F703        F  0.43199202  0.00150747  0.51590344    -0.23000
F704        F  0.44551295  0.02042627  0.47032742    -0.24600
C705        C  0.58346923  0.15128441  0.85215583    -0.11400
C706        C  0.56309824  0.14567888  0.86617622     0.11200
C707        C  0.54454323  0.14002116  0.84643907    -0.03200
C708        C  0.54711922  0.14029729  0.81314283    -0.05900
C709        C  0.56751122  0.14601517  0.79910657    -0.16700
C710        C  0.58592169  0.15106459  0.81887331     0.02200
C711        C  0.56183616  0.14633316  0.90159697     0.12200
C712        C  0.52207162  0.13354779  0.86045710     0.62800
H713        H  0.53318248  0.13617871  0.79766497     0.12200
C714        C  0.60776269  0.15521903  0.80502009     0.54900
H715        H  0.59748986  0.15576765  0.86762742     0.08000
C716        C  0.56134384  0.12959268  0.92132903    -0.05800
C717        C  0.56051161  0.13166711  0.95464560    -0.06600
C718        C  0.55987910  0.14969919  0.96872217    -0.16100
C719        C  0.55932302  0.16587050  0.94874098    -0.01700
C720        C  0.56104657  0.16422093  0.91555717    -0.09300
C721        C  0.56161713  0.10960799  0.90725870     0.65000
H722        H  0.56070902  0.11931097  0.97006299     0.10400
C723        C  0.55563476  0.18408355  0.96200609     0.63400
H724        H  0.56156071  0.17687821  0.90003319     0.07800
F725        F  0.60417303  0.13816620  0.78451671    -0.19700
F726        F  0.62220186  0.15630331  0.82848777    -0.15900
F727        F  0.61774669  0.17504061  0.78859766    -0.19400
F728        F  0.52293360  0.15142728  0.87609542    -0.22800
F729        F  0.51583785  0.11631094  0.88173844    -0.24200
F730        F  0.50592436  0.12671521  0.83719351    -0.18200
F731        F  0.57407279  0.19936118  0.97861545    -0.20700
F732        F  0.53750447  0.17495123  0.98204874    -0.21900
F733        F  0.55157649  0.19526854  0.93809250    -0.19100
F734        F  0.55911904  0.09440590  0.93043430    -0.19100
F735        F  0.58145439  0.11625710  0.89193623    -0.23000
F736        F  0.54453680  0.09902997  0.88564780    -0.24600
C737        C  0.57549685  0.16227794  0.41182520    -0.11400
C738        C  0.58158800  0.14711444  0.40059010     0.11200
C739        C  0.58648733  0.13476232  0.42262935    -0.03200
C740        C  0.58394192  0.13723359  0.45544866    -0.05900
C741        C  0.57742595  0.15213253  0.46664599    -0.16700
C742        C  0.57319249  0.16494724  0.44455401     0.02200
C743        C  0.58207360  0.14430226  0.36546957     0.12200
C744        C  0.59468675  0.11937073  0.41149024     0.62800
H745        H  0.58729545  0.12774183  0.47272465     0.12200
C746        C  0.56559616  0.18086543  0.45542669     0.54900
H747        H  0.57220892  0.17180371  0.39452525     0.08000
C748        C  0.56266451  0.13029782  0.34810113    -0.05800
C749        C  0.56403672  0.12891275  0.31480049    -0.06600
C750        C  0.58381122  0.14204737  0.29802457    -0.16100
C751        C  0.60316326  0.15677059  0.31556167    -0.01700
C752        C  0.60192647  0.15726797  0.34910119    -0.09300
C753        C  0.54040794  0.11755878  0.36461808     0.65000
H754        H  0.54927116  0.11812874  0.30138014     0.10400
C755        C  0.62504097  0.17207972  0.29938765     0.63400
H756        H  0.61636816  0.16834252  0.36293267     0.07800
F757        F  0.55965675  0.18946331  0.43003538    -0.19700
F758        F  0.58249982  0.19833122  0.47174220    -0.15900
F759        F  0.54741079  0.17000372  0.47513556    -0.19400
F760        F  0.61445978  0.13144050  0.39546251    -0.22800
F761        F  0.57943456  0.10340885  0.39127033    -0.24200
F762        F  0.59818213  0.10869855  0.43672437    -0.18200
F763        F  0.62329983  0.18810023  0.28227038    -0.20700
F764        F  0.63077143  0.16006019  0.27918786    -0.21900
F765        F  0.64202261  0.18286550  0.32117478    -0.19100
F766        F  0.52369750  0.10443777  0.34354488    -0.19100
F767        F  0.53502392  0.13226270  0.37848720    -0.23000
F768        F  0.54118952  0.10398828  0.38794235    -0.24600
C769        C  0.51846827  0.00232916  0.20714197    -0.11400
C770        C  0.52948993  0.00279530  0.23521671     0.11200
C771        C  0.55011853  0.02160466  0.24224102    -0.03200
C772        C  0.55728438  0.04084726  0.22359952    -0.05900
C773        C  0.54518973  0.04115244  0.19694758    -0.16700
C774        C  0.52614196  0.02105454  0.18735767     0.02200
C775        C  0.51818452  0.98374182  0.25750521     0.12200
C776        C  0.56447118  0.02104623  0.26894475     0.62800
H777        H  0.57225719  0.05592334  0.22999230     0.12200
C778        C  0.51328249  0.01937566  0.15724522     0.54900
H779        H  0.50321192  0.98730051  0.20157620     0.08000
C780        C  0.50295370  0.98292601  0.28046361    -0.05800
C781        C  0.49136201  0.96374431  0.29918111    -0.06600
C782        C  0.49371401  0.94498436  0.29480288    -0.16100
C783        C  0.50923488  0.94596924  0.27178161    -0.01700
C784        C  0.52126409  0.96548273  0.25370699    -0.09300
C785        C  0.49828689  0.00193914  0.28422188     0.65000
H786        H  0.47942844  0.96288653  0.31639538     0.10400
C787        C  0.51310641  0.92663707  0.26564817     0.63400
H788        H  0.53268928  0.96640374  0.23553147     0.07800
F789        F  0.49513871  0.99843866  0.15325317    -0.19700
F790        F  0.52674656  0.02371210  0.13094699    -0.15900
F791        F  0.50574173  0.03434793  0.15847514    -0.19400
F792        F  0.56906433  0.00417807  0.26327189    -0.22800
F793        F  0.55369381  0.01727676  0.29779744    -0.24200
F794        F  0.58434025  0.04072346  0.27109931    -0.18200
F795        F  0.49508614  0.90985878  0.24999620    -0.20700
F796        F  0.51643850  0.91877585  0.29413529    -0.21900
F797        F  0.53153164  0.93274220  0.24681996    -0.19100
F798        F  0.48299505  0.99787435  0.30797905    -0.19100
F799        F  0.48996167  0.00507473  0.25606520    -0.23000
F800        F  0.51749342  0.02120928  0.29188585    -0.24600
C801        C  0.46388964  0.01938818  0.02979341    -0.11400
C802        C  0.47431769  0.00946409  0.01355955     0.11200
C803        C  0.49766558  0.01961615  0.01419427    -0.03200
C804        C  0.50976182  0.03875742  0.03274765    -0.05900
C805        C  0.49940826  0.04858575  0.04921422    -0.16700
C806        C  0.47620380  0.03916972  0.04728822     0.02200
C807        C  0.46076060  0.98848673  0.99571482     0.12200
C808        C  0.50977820  0.01043213  0.99496633     0.62800
H809        H  0.52759996  0.04662186  0.03391130     0.12200
C810        C  0.46469819  0.05006034  0.06361194     0.54900
H811        H  0.44607713  0.01162562  0.02835584     0.08000
C812        C  0.45261313  0.96764439  0.01040804    -0.05800
C813        C  0.44483331  0.94874632  0.99101868    -0.06600
C814        C  0.44528569  0.95002941  0.95742649    -0.16100
C815        C  0.45107249  0.97081116  0.94305459    -0.01700
C816        C  0.45847458  0.98962369  0.96276408    -0.09300
C817        C  0.45289746  0.96553876  0.04638599     0.65000
H818        H  0.43946259  0.93290123  0.00227182     0.10400
C819        C  0.45049823  0.97377145  0.90728270     0.63400
H820        H  0.46423377  0.00581832  0.95236922     0.07800
F821        F  0.46978200  0.05259484  0.09571768    -0.19700
F822        F  0.44196690  0.03761488  0.06046365    -0.15900
F823        F  0.47165315  0.07064551  0.05027744    -0.19400
F824        F  0.50526736  0.01048561  0.96293358    -0.22800
F825        F  0.50312593  0.98899785  0.00438221    -0.24200
F826        F  0.53244345  0.02295555  0.99885087    -0.18200
F827        F  0.42993130  0.95862950  0.89537955    -0.20700
F828        F  0.46664679  0.97089351  0.89267368    -0.21900
F829        F  0.45435256  0.99472381  0.89947448    -0.19100
F830        F  0.44380475  0.94368741  0.05593545    -0.19100
F831        F  0.44078046  0.97411224  0.06019400    -0.23000
F832        F  0.47436409  0.97705811  0.05756345    -0.24600
C833        C  0.72154129  0.31807375  0.68388289    -0.11400
C834        C  0.70999368  0.30727148  0.71160014     0.11200
C835        C  0.71915536  0.31610979  0.74172813    -0.03200
C836        C  0.73941636  0.33600059  0.74306025    -0.05900
C837        C  0.75114387  0.34706577  0.71543099    -0.16700
C838        C  0.74208587  0.33789446  0.68514560     0.02200
C839        C  0.68888910  0.28600847  0.70844066     0.12200
C840        C  0.70775554  0.30438959  0.77238129     0.62800
H841        H  0.74658926  0.34280395  0.76607310     0.12200
C842        C  0.75371136  0.34885147  0.65430449     0.54900
H843        H  0.71437728  0.31058851  0.66114758     0.08000
C844        C  0.66859072  0.28515433  0.70193290    -0.05800
C845        C  0.64931007  0.26429923  0.69973536    -0.06600
C846        C  0.64980757  0.24447228  0.70342375    -0.16100
C847        C  0.67025524  0.24542047  0.70942219    -0.01700
C848        C  0.68948543  0.26628722  0.71178719    -0.09300
C849        C  0.66740828  0.30613041  0.69666460     0.65000
H850        H  0.63365447  0.26326970  0.69432407     0.10400
C851        C  0.67200925  0.22459431  0.71189161     0.63400
H852        H  0.70532653  0.26745392  0.71610981     0.07800
F853        F  0.75888579  0.37078644  0.65411834    -0.19700
F854        F  0.74062044  0.33859582  0.62795569    -0.15900
F855        F  0.77282631  0.34768268  0.65132108    -0.19400
F856        F  0.70655234  0.28398968  0.77392854    -0.22800
F857        F  0.68664127  0.30136202  0.77342920    -0.24200
F858        F  0.71902786  0.31636643  0.79908548    -0.18200
F859        F  0.66334808  0.21181714  0.68480530    -0.20700
F860        F  0.66051683  0.21253049  0.73830026    -0.21900
F861        F  0.69370624  0.22941552  0.71492172    -0.19100
F862        F  0.64595867  0.30157166  0.69145083    -0.19100
F863        F  0.67984299  0.31730068  0.67034746    -0.23000
F864        F  0.67551802  0.31976037  0.72303403    -0.24600
C865        C  0.67499070  0.28133024  0.19833274    -0.11400
C866        C  0.69460065  0.28044561  0.19903579     0.11200
C867        C  0.69367132  0.25966495  0.19935383    -0.03200
C868        C  0.67290116  0.24028718  0.19764031    -0.05900
C869        C  0.65323254  0.24111344  0.19589606    -0.16700
C870        C  0.65419063  0.26197088  0.19665860     0.02200
C871        C  0.71573924  0.30152924  0.20286097     0.12200
C872        C  0.71450523  0.25798092  0.20192568     0.62800
H873        H  0.67187735  0.22424806  0.19714799     0.12200
C874        C  0.63344925  0.26389665  0.19648280     0.54900
H875        H  0.67616700  0.29743617  0.19911017     0.08000
C876        C  0.72736934  0.31555436  0.17698125    -0.05800
C877        C  0.74743677  0.33522131  0.18315083    -0.06600
C878        C  0.75577637  0.34119946  0.21424738    -0.16100
C879        C  0.74401762  0.32691999  0.24000537    -0.01700
C880        C  0.72397923  0.30753613  0.23376190    -0.09300
C881        C  0.71854065  0.30978331  0.14320063     0.65000
H882        H  0.75666474  0.34622146  0.16379174     0.10400
C883        C  0.75301644  0.33129840  0.27379522     0.63400
H884        H  0.71455221  0.29659161  0.25307061     0.07800
F885        F  0.62383689  0.25868687  0.16663068    -0.19700
F886        F  0.63802409  0.28515070  0.20390755    -0.15900
F887        F  0.61858418  0.24965378  0.21877330    -0.19400
F888        F  0.72430273  0.26579714  0.23125804    -0.22800
F889        F  0.72928036  0.27037954  0.17830021    -0.24200
F890        F  0.71004335  0.23633709  0.19886165    -0.18200
F891        F  0.75318765  0.34979480  0.28612065    -0.20700
F892        F  0.77419977  0.33449714  0.27375854    -0.21900
F893        F  0.74039163  0.31368869  0.29387217    -0.19100
F894        F  0.73250910  0.32552714  0.12155522    -0.19100
F895        F  0.69817463  0.30851176  0.14131325    -0.23000
F896        F  0.71624251  0.28960164  0.13444799    -0.24600
C897        C  0.86466549  0.43497586  0.49421625    -0.11400
C898        C  0.84453743  0.42780978  0.50987210     0.11200
C899        C  0.82557083  0.42340038  0.49212808    -0.03200
C900        C  0.82726622  0.42532900  0.45875853    -0.05900
C901        C  0.84729855  0.43180548  0.44258777    -0.16700
C902        C  0.86653962  0.43709790  0.46085045     0.02200
C903        C  0.84428711  0.42606831  0.54513697     0.12200
C904        C  0.80362885  0.41656925  0.50835980     0.62800
H905        H  0.81274178  0.42171944  0.44499522     0.12200
C906        C  0.88897966  0.44470161  0.44575190     0.54900
H907        H  0.87901289  0.43887603  0.50864598     0.08000
C908        C  0.84313988  0.40749832  0.56078338    -0.05800
C909        C  0.84395484  0.40750170  0.59426373    -0.06600
C910        C  0.84663039  0.42569179  0.61215477    -0.16100
C911        C  0.84775945  0.44422831  0.59655095    -0.01700
C912        C  0.84663670  0.44411464  0.56310477    -0.09300
C913        C  0.84177028  0.38811730  0.54220722     0.65000
H914        H  0.84327791  0.39358114  0.60678161     0.10400
C915        C  0.84968066  0.46377793  0.61523649     0.63400
H916        H  0.84785060  0.45826912  0.55057674     0.07800
F917        F  0.90476464  0.44748559  0.46806986    -0.19700
F918        F  0.89626917  0.46486477  0.43082548    -0.15900
F919        F  0.88748396  0.42912401  0.42391619    -0.19400
F920        F  0.80593501  0.43288855  0.52934892    -0.22800
F921        F  0.79665737  0.39706530  0.52493786    -0.24200
F922        F  0.78730889  0.41324443  0.48668236    -0.18200
F923        F  0.86957444  0.47420539  0.63138945    -0.20700
F924        F  0.83253044  0.45645545  0.63688233    -0.21900
F925        F  0.84870591  0.47922798  0.59560224    -0.19100
F926        F  0.83947776  0.37126036  0.56211547    -0.19100
F927        F  0.86082615  0.39513998  0.52458696    -0.23000
F928        F  0.82382997  0.37949766  0.52185931    -0.24600
C929        C  0.83616140  0.40943574  0.06189428    -0.11400
C930        C  0.85563966  0.41570486  0.04485646     0.11200
C931        C  0.87515539  0.42049851  0.06151786    -0.03200
C932        C  0.87442897  0.41892894  0.09497288    -0.05900
C933        C  0.85490944  0.41265372  0.11230043    -0.16700
C934        C  0.83520639  0.40736790  0.09530303     0.02200
C935        C  0.85510565  0.41796418  0.00964000     0.12200
C936        C  0.89672430  0.42747083  0.04412300     0.62800
H937        H  0.88933864  0.42283457  0.10795008     0.12200
C938        C  0.81327216  0.39999091  0.11190096     0.54900
H939        H  0.82159225  0.40624642  0.04855435     0.08000
C940        C  0.84458863  0.39935010  0.98913843    -0.05800
C941        C  0.84347622  0.40290063  0.95635920    -0.06600
C942        C  0.85305805  0.42430891  0.94345846    -0.16100
C943        C  0.86414481  0.44293565  0.96387809    -0.01700
C944        C  0.86447779  0.43935363  0.99681181    -0.09300
C945        C  0.83471310  0.37585954  0.00172780     0.65000
H946        H  0.83514517  0.38889183  0.94038190     0.10400
C947        C  0.87508138  0.46648023  0.95121759     0.63400
H948        H  0.87204873  0.45330376  0.01300325     0.07800
F949        F  0.80614832  0.37972962  0.12643774    -0.19700
F950        F  0.79695062  0.39750350  0.09078799    -0.15900
F951        F  0.81562232  0.41554610  0.13439098    -0.19400
F952        F  0.90436538  0.44807400  0.03050322    -0.22800
F953        F  0.89350860  0.41228708  0.02053049    -0.24200
F954        F  0.91295244  0.42878311  0.06445000    -0.18200
F955        F  0.88300808  0.48199025  0.97552254    -0.20700
F956        F  0.86000733  0.46954775  0.93378529    -0.21900
F957        F  0.89276526  0.47042617  0.93203853    -0.19100
F958        F  0.82742563  0.36041650  0.97733301    -0.19100
F959        F  0.81689021  0.37093954  0.02115327    -0.23000
F960        F  0.85042328  0.37372369  0.01896016    -0.24600
C961        C  0.27312893  0.68190805  0.43738399    -0.11400
C962        C  0.28519222  0.69146169  0.46530504     0.11200
C963        C  0.27739446  0.68057496  0.49475129    -0.03200
C964        C  0.25772673  0.66006887  0.49512188    -0.05900
C965        C  0.24539843  0.65031817  0.46721628    -0.16700
C966        C  0.25331388  0.66139653  0.43769401     0.02200
C967        C  0.30590134  0.71309101  0.46295729     0.12200
C968        C  0.28965887  0.69075833  0.52566693     0.62800
H969        H  0.25147420  0.65178535  0.51768027     0.12200
C970        C  0.24115424  0.65180703  0.40664222     0.54900
H971        H  0.27936191  0.69085588  0.41525299     0.08000
C972        C  0.32588804  0.71465247  0.45271339    -0.05800
C973        C  0.34468855  0.73577062  0.44987507    -0.06600
C974        C  0.34416415  0.75526807  0.45718097    -0.16100
C975        C  0.32420529  0.75349381  0.46877185    -0.01700
C976        C  0.30529496  0.73233452  0.47086035    -0.09300
C977        C  0.32719706  0.69409125  0.44430730     0.65000
H978        H  0.35996289  0.73721973  0.44122127     0.10400
C979        C  0.32252676  0.77365771  0.47826278     0.63400
H980        H  0.28969769  0.73055696  0.47859730     0.07800
F981        F  0.25361599  0.66346808  0.38054881    -0.19700
F982        F  0.22184007  0.65273634  0.40629164    -0.15900
F983        F  0.23631200  0.63005890  0.40342705    -0.19400
F984        F  0.28998589  0.71044826  0.53151785    -0.22800
F985        F  0.31112398  0.69483021  0.52368241    -0.24200
F986        F  0.27974075  0.67701805  0.55144672    -0.18200
F987        F  0.30133325  0.76803141  0.48750339    -0.20700
F988        F  0.32831528  0.78812800  0.45286767    -0.21900
F989        F  0.33643239  0.78416928  0.50371719    -0.19100
F990        F  0.34858348  0.69917966  0.43738350    -0.19100
F991        F  0.31418814  0.68382254  0.41797612    -0.23000
F992        F  0.31987492  0.67941397  0.46953471    -0.24600
C993        C  0.02702907  0.50151571  0.66030090    -0.11400
C994        C  0.00898849  0.48474082  0.64391125     0.11200
C995        C  0.01152600  0.47982771  0.61198993    -0.03200
C996        C  0.03240779  0.49211805  0.59747479    -0.05900
C997        C  0.05062548  0.50871196  0.61413280    -0.16700
C998        C  0.04797249  0.51345138  0.64621861     0.02200
C999        C  0.98730287  0.47410372  0.66032587     0.12200
C1000       C  0.99226001  0.46177534  0.59344849     0.62800
H1001       H  0.03466926  0.48893147  0.57291533     0.12200
C1002       C  0.06691113  0.53144771  0.66542480     0.54900
H1003       H  0.02443945  0.50528317  0.68440027     0.08000
C1004       C  0.98196384  0.45839651  0.68500975    -0.05800
C1005       C  0.96193138  0.45084162  0.70155987    -0.06600
C1006       C  0.94726775  0.45844788  0.69397043    -0.16100
C1007       C  0.95261477  0.47406169  0.66894350    -0.01700
C1008       C  0.97272385  0.48172960  0.65280982    -0.09300
C1009       C  0.99754727  0.45001655  0.69418375     0.65000
H1010       H  0.95770404  0.43917480  0.72094791     0.10400
C1011       C  0.93767919  0.48332303  0.65985756     0.63400
H1012       H  0.97749972  0.49413363  0.63434899     0.07800
F1013       F  0.08251323  0.52520983  0.67150891    -0.19700
F1014       F  0.05986547  0.53513759  0.69441455    -0.15900
F1015       F  0.07659410  0.55120523  0.64877042    -0.19400
F1016       F  0.97614318  0.46752095  0.58899208    -0.22800
F1017       F  0.98330354  0.44202947  0.61001815    -0.24200
F1018       F  0.99872287  0.45839136  0.56379803    -0.18200
F1019       F  0.94765979  0.50050355  0.63819151    -0.20700
F1020       F  0.93245119  0.49143583  0.68655959    -0.21900
F1021       F  0.91851690  0.46684037  0.64603841    -0.19100
F1022       F  0.98816423  0.43313345  0.71638674    -0.19100
F1023       F  0.01666025  0.46707154  0.70720105    -0.23000
F1024       F  0.00289593  0.44193948  0.66760241    -0.24600
C1025       C  0.02759038  0.54592910  0.40817387    -0.11400
C1026       C  0.00808584  0.52832372  0.42058496     0.11200
C1027       C  0.00817216  0.52040964  0.45159193    -0.03200
C1028       C  0.02815509  0.52987494  0.46868183    -0.05900
C1029       C  0.04807365  0.54654874  0.45559680    -0.16700
C1030       C  0.04766727  0.55540926  0.42525127     0.02200
C1031       C  0.98846117  0.51681819  0.39937907     0.12200
C1032       C  0.98743285  0.50140452  0.46611281     0.62800
H1033       H  0.02858368  0.52328834  0.49184229     0.12200
C1034       C  0.06807795  0.57491362  0.41095843     0.54900
H1035       H  0.02712572  0.55165380  0.38437314     0.08000
C1036       C  0.97282815  0.52392662  0.39551678    -0.05800
C1037       C  0.95375463  0.51083297  0.37706883    -0.06600
C1038       C  0.95042797  0.49152278  0.36140361    -0.16100
C1039       C  0.96675360  0.48505990  0.36421646    -0.01700
C1040       C  0.98550864  0.49795474  0.38314830    -0.09300
C1041       C  0.97656857  0.54543816  0.41028033     0.65000
H1042       H  0.94129585  0.51566546  0.37454943     0.10400
C1043       C  0.96418607  0.46421832  0.34845953     0.63400
H1044       H  0.99800849  0.49319973  0.38600213     0.07800
F1045       F  0.06283991  0.58352381  0.38482290    -0.19700
F1046       F  0.08285870  0.56839310  0.40106822    -0.15900
F1047       F  0.07806946  0.59163063  0.43334505    -0.19400
F1048       F  0.98069923  0.48234263  0.44844776    -0.22800
F1049       F  0.97065769  0.50646942  0.46652501    -0.24200
F1050       F  0.99091507  0.49709788  0.49710524    -0.18200
F1051       F  0.98065164  0.45979470  0.35763214    -0.20700
F1052       F  0.96531488  0.46674552  0.31575118    -0.21900
F1053       F  0.94411952  0.44612812  0.35678533    -0.19100
F1054       F  0.95906987  0.54900493  0.40446821    -0.19100
F1055       F  0.99543201  0.56296189  0.39753065    -0.23000
F1056       F  0.97914025  0.54515078  0.44285414    -0.24600
C1057       C  0.27951119  0.68425974  0.98745533    -0.11400
C1058       C  0.28574226  0.69169194  0.95629461     0.11200
C1059       C  0.27285315  0.67852257  0.93046264    -0.03200
C1060       C  0.25331714  0.65848680  0.93703689    -0.05900
C1061       C  0.24683651  0.65107059  0.96842051    -0.16700
C1062       C  0.26022397  0.66425636  0.99421955     0.02200
C1063       C  0.30643034  0.71312793  0.95210226     0.12200
C1064       C  0.27991985  0.68544500  0.89626257     0.62800
H1065       H  0.24308680  0.64825935  0.91763431     0.12200
C1066       C  0.25411731  0.65792753  0.02890968     0.54900
H1067       H  0.29005662  0.69450577  0.00661772     0.08000
C1068       C  0.30712042  0.73365202  0.95612189    -0.05800
C1069       C  0.32765841  0.75329644  0.95415157    -0.06600
C1070       C  0.34736961  0.75296853  0.94885988    -0.16100
C1071       C  0.34668084  0.73228135  0.94612434    -0.01700
C1072       C  0.32608220  0.71268402  0.94770068    -0.09300
C1073       C  0.28629121  0.73475347  0.96283028     0.65000
H1074       H  0.32844223  0.76917511  0.95629188     0.10400
C1075       C  0.36753683  0.73070437  0.94306296     0.63400
H1076       H  0.32510673  0.69669998  0.94588548     0.07800
F1077       F  0.26803948  0.67461696  0.04952851    -0.19700
F1078       F  0.25559263  0.63934668  0.03610189    -0.15900
F1079       F  0.23289038  0.65380200  0.03444978    -0.19400
F1080       F  0.29991810  0.68645604  0.89072881    -0.22800
F1081       F  0.28221334  0.70603565  0.89061635    -0.24200
F1082       F  0.26467105  0.67061242  0.87476561    -0.18200
F1083       F  0.36319021  0.70908068  0.94588557    -0.20700
F1084       F  0.38228285  0.74309247  0.96682190    -0.21900
F1085       F  0.37718680  0.73846066  0.91371103    -0.19100
F1086       F  0.29042470  0.75636897  0.96366776    -0.19100
F1087       F  0.27763971  0.72515295  0.99197064    -0.23000
F1088       F  0.27070641  0.72358673  0.93943028    -0.24600
C1089       C  0.97454688  0.44770185  0.16183896    -0.11400
C1090       C  0.99292103  0.46787941  0.17088908     0.11200
C1091       C  0.99223154  0.47820055  0.19961249    -0.03200
C1092       C  0.97267937  0.46831315  0.21773021    -0.05900
C1093       C  0.95380607  0.44873407  0.20784351    -0.16700
C1094       C  0.95502503  0.43769526  0.18011716     0.02200
C1095       C  0.01235405  0.47842614  0.14919551     0.12200
C1096       C  0.01185052  0.49993011  0.21059722     0.62800
H1097       H  0.97159138  0.47656991  0.23894491     0.12200
C1098       C  0.93606428  0.41530317  0.17004042     0.54900
H1099       H  0.97542799  0.44008033  0.13981044     0.08000
C1100       C  0.02888828  0.47233888  0.14898212    -0.05800
C1101       C  0.04785360  0.48460823  0.13010266    -0.06600
C1102       C  0.05045955  0.50227627  0.11087247    -0.16100
C1103       C  0.03325332  0.50764055  0.10999052    -0.01700
C1104       C  0.01441812  0.49540545  0.12910205    -0.09300
C1105       C  0.02642609  0.45295514  0.16862445     0.65000
H1106       H  0.06094936  0.48055441  0.13035332     0.10400
C1107       C  0.03500173  0.52678456  0.09028463     0.63400
H1108       H  0.00125437  0.49936812  0.12923538     0.07800
F1109       F  0.94274252  0.40526037  0.14761034    -0.19700
F1110       F  0.91925787  0.41774302  0.15687562    -0.15900
F1111       F  0.92809711  0.40139390  0.19613482    -0.19400
F1112       F  0.01582007  0.51653468  0.18912794    -0.22800
F1113       F  0.03045015  0.49779000  0.21283493    -0.24200
F1114       F  0.00821095  0.50634747  0.24014309    -0.18200
F1115       F  0.03505320  0.52227676  0.05823058    -0.20700
F1116       F  0.05420894  0.54611932  0.09796416    -0.21900
F1117       F  0.01744321  0.53034003  0.09568060    -0.19100
F1118       F  0.04473206  0.45029754  0.16600278    -0.19100
F1119       F  0.00820035  0.43365748  0.15822397    -0.23000
F1120       F  0.02368103  0.45617803  0.20039059    -0.24600
C1121       C  0.16498461  0.56744911  0.74769683    -0.11400
C1122       C  0.15016629  0.57278166  0.76208367     0.11200
C1123       C  0.13616202  0.57734103  0.74307109    -0.03200
C1124       C  0.13726134  0.57595013  0.70971074    -0.05900
C1125       C  0.15210587  0.57051165  0.69527866    -0.16700
C1126       C  0.16590829  0.56573486  0.71452722     0.02200
C1127       C  0.14975272  0.57324599  0.79730962     0.12200
C1128       C  0.12044183  0.58391111  0.75804878     0.62800
H1129       H  0.12680872  0.57946121  0.69459775     0.12200
C1130       C  0.18070212  0.55769592  0.70033057     0.54900
H1131       H  0.17561988  0.56424920  0.76289495     0.08000
C1132       C  0.13798605  0.55364133  0.81534274    -0.05800
C1133       C  0.13834917  0.55529332  0.84866937    -0.06600
C1134       C  0.15068826  0.57569072  0.86445319    -0.16100
C1135       C  0.16347169  0.59523822  0.84621247    -0.01700
C1136       C  0.16256489  0.59357399  0.81277119    -0.09300
C1137       C  0.12526443  0.53106254  0.79944632     0.65000
H1138       H  0.12908176  0.54046739  0.86279818     0.10400
C1139       C  0.17778180  0.61779731  0.86151933     0.63400
H1140       H  0.17201263  0.60815319  0.79822601     0.07800
F1141       F  0.18993700  0.55074165  0.72358816    -0.19700
F1142       F  0.19777693  0.57455118  0.68344818    -0.15900
F1143       F  0.16844435  0.53994205  0.68025766    -0.19400
F1144       F  0.13232964  0.60343190  0.77490477    -0.22800
F1145       F  0.10613243  0.56754152  0.77859503    -0.24200
F1146       F  0.10793745  0.58714411  0.73536858    -0.18200
F1147       F  0.19496251  0.61788082  0.87804168    -0.20700
F1148       F  0.16524533  0.62255738  0.88211100    -0.21900
F1149       F  0.18694520  0.63458458  0.83912376    -0.19100
F1150       F  0.11482638  0.51420027  0.82147429    -0.19100
F1151       F  0.13954268  0.52682606  0.78201575    -0.23000
F1152       F  0.10934707  0.53052797  0.77932876    -0.24600
C1153       C  0.15513790  0.58944650  0.31109155    -0.11400
C1154       C  0.14500462  0.56821788  0.29756512     0.11200
C1155       C  0.13531370  0.54933508  0.31748060    -0.03200
C1156       C  0.13568695  0.55245707  0.35061597    -0.05900
C1157       C  0.14587942  0.57370991  0.36431191    -0.16700
C1158       C  0.15572262  0.59260130  0.34425790     0.02200
C1159       C  0.14599881  0.56645353  0.26246272     0.12200
C1160       C  0.12491648  0.52603973  0.30383726     0.62800
H1161       H  0.12825407  0.53821789  0.36626550     0.12200
C1162       C  0.16632544  0.61594956  0.35757677     0.54900
H1163       H  0.16275592  0.60359057  0.29527992     0.08000
C1164       C  0.13054945  0.56757802  0.24187197    -0.05800
C1165       C  0.13298490  0.56628636  0.20879427    -0.06600
C1166       C  0.15084896  0.56494255  0.19583307    -0.16100
C1167       C  0.16646447  0.56405696  0.21665351    -0.01700
C1168       C  0.16362344  0.56475363  0.24970728    -0.09300
C1169       C  0.11219176  0.57111105  0.25472329     0.65000
H1170       H  0.12135380  0.56718019  0.19265178     0.10400
C1171       C  0.18584620  0.56199377  0.20437765     0.63400
H1172       H  0.17540284  0.56432746  0.26607191     0.07800
F1173       F  0.17242207  0.63164701  0.33373927    -0.19700
F1174       F  0.18509494  0.62050567  0.37448438    -0.15900
F1175       F  0.15162782  0.61799214  0.37742096    -0.19400
F1176       F  0.14070241  0.52335556  0.28778745    -0.22800
F1177       F  0.10814779  0.52238310  0.28294089    -0.24200
F1178       F  0.11603536  0.51006937  0.32741036    -0.18200
F1179       F  0.20092365  0.58143266  0.18952589    -0.20700
F1180       F  0.17843603  0.54457501  0.18305574    -0.21900
F1181       F  0.19676792  0.55800284  0.22874446    -0.19100
F1182       F  0.09806429  0.57012106  0.23082923    -0.19100
F1183       F  0.12128860  0.59172432  0.26895398    -0.23000
F1184       F  0.09979490  0.55510634  0.27699641    -0.24600
C1185       C  0.98726286  0.49688679  0.87431205    -0.11400
C1186       C  0.99009528  0.51350611  0.89577262     0.11200
C1187       C  0.97405931  0.52025996  0.89712039    -0.03200
C1188       C  0.95474102  0.50885564  0.87845389    -0.05900
C1189       C  0.95138541  0.49151802  0.85776776    -0.16700
C1190       C  0.96818167  0.48563935  0.85527539     0.02200
C1191       C  0.00987393  0.52299081  0.91699923     0.12200
C1192       C  0.97749087  0.53950264  0.91806419     0.62800
H1193       H  0.94198422  0.51334744  0.87998850     0.12200
C1194       C  0.96577462  0.46695898  0.83379440     0.54900
H1195       H  0.00006535  0.49243317  0.87323187     0.08000
C1196       C  0.01043743  0.51188626  0.94494243    -0.05800
C1197       C  0.03018455  0.52078410  0.96261419    -0.06600
C1198       C  0.04946704  0.53996629  0.95284356    -0.16100
C1199       C  0.04870755  0.55143261  0.92536624    -0.01700
C1200       C  0.02884207  0.54264101  0.90783852    -0.09300
C1201       C  0.99045115  0.49035270  0.95556488     0.65000
H1202       H  0.03101102  0.51215446  0.98354337     0.10400
C1203       C  0.06862824  0.57291958  0.91464783     0.63400
H1204       H  0.02812858  0.55073537  0.88623287     0.07800
F1205       F  0.94635579  0.44766622  0.84073951    -0.19700
F1206       F  0.98301655  0.46271032  0.83767427    -0.15900
F1207       F  0.96562959  0.47258955  0.80227733    -0.19400
F1208       F  0.99603636  0.55863726  0.90804673    -0.22800
F1209       F  0.98039110  0.53545251  0.94939406    -0.24200
F1210       F  0.95966741  0.54302500  0.91672404    -0.18200
F1211       F  0.06296458  0.58360104  0.89189785    -0.20700
F1212       F  0.08428726  0.56862437  0.90159490    -0.21900
F1213       F  0.07771903  0.58712061  0.94030926    -0.19100
F1214       F  0.99414363  0.48300023  0.98429196    -0.19100
F1215       F  0.98551438  0.47403836  0.93306376    -0.23000
F1216       F  0.97242317  0.49331080  0.95928348    -0.24600
C1217       C  0.42296588  0.73170117  0.79183605    -0.11400
C1218       C  0.40703092  0.71183393  0.80590330     0.11200
C1219       C  0.39240490  0.71211413  0.82887141    -0.03200
C1220       C  0.39373520  0.73240155  0.83614117    -0.05900
C1221       C  0.40955050  0.75240555  0.82203853    -0.16700
C1222       C  0.42456598  0.75214951  0.79955059     0.02200
C1223       C  0.40594200  0.69091078  0.79583276     0.12200
C1224       C  0.37566156  0.69115374  0.84591757     0.62800
H1225       H  0.38241270  0.73282450  0.85332791     0.12200
C1226       C  0.44251581  0.77324393  0.78445889     0.54900
H1227       H  0.43416416  0.73097905  0.77467388     0.08000
C1228       C  0.39479924  0.67980033  0.76778360    -0.05800
C1229       C  0.39454482  0.66016894  0.75943073    -0.06600
C1230       C  0.40553931  0.65155314  0.77757575    -0.16100
C1231       C  0.41653242  0.66270879  0.80609620    -0.01700
C1232       C  0.41656083  0.68233879  0.81452546    -0.09300
C1233       C  0.38366130  0.68894077  0.74634881     0.65000
H1234       H  0.38598049  0.65158609  0.73797347     0.10400
C1235       C  0.42866764  0.65456671  0.82727827     0.63400
H1236       H  0.42508218  0.69139714  0.83577151     0.07800
F1237       F  0.45611029  0.76928414  0.76483190    -0.19700
F1238       F  0.45548962  0.78796723  0.80790278    -0.15900
F1239       F  0.43299621  0.78272740  0.76621697    -0.19400
F1240       F  0.38650503  0.68245929  0.86297089    -0.22800
F1241       F  0.36170764  0.67561023  0.82407743    -0.24200
F1242       F  0.36284619  0.69517787  0.86706604    -0.18200
F1243       F  0.44493893  0.65344114  0.80999126    -0.20700
F1244       F  0.41394612  0.63387437  0.83927431    -0.21900
F1245       F  0.43871958  0.66853872  0.85294328    -0.19100
F1246       F  0.37287233  0.67497993  0.72097595    -0.19100
F1247       F  0.39931093  0.70917994  0.73414586    -0.23000
F1248       F  0.36827215  0.69168199  0.76342398    -0.24600
C1249       C  0.31843602  0.60054205  0.65084550    -0.11400
C1250       C  0.30676982  0.58901612  0.62371447     0.11200
C1251       C  0.31574887  0.57915045  0.60369208    -0.03200
C1252       C  0.33535497  0.57960332  0.61307651    -0.05900
C1253       C  0.34696339  0.59056459  0.64093929    -0.16700
C1254       C  0.33862258  0.60201396  0.65966808     0.02200
C1255       C  0.28614700  0.58931561  0.61550827     0.12200
C1256       C  0.30491346  0.56864623  0.57215605     0.62800
H1257       H  0.34188089  0.57149158  0.59824800     0.12200
C1258       C  0.35074015  0.61617567  0.68848421     0.54900
H1259       H  0.31155957  0.60869018  0.66492110     0.08000
C1260       C  0.26519159  0.57390825  0.62812651    -0.05800
C1261       C  0.24637300  0.57486493  0.61794294    -0.06600
C1262       C  0.24809687  0.59094162  0.59610363    -0.16100
C1263       C  0.26942425  0.60737723  0.58554598    -0.01700
C1264       C  0.28802257  0.60614172  0.59538563    -0.09300
C1265       C  0.26286818  0.55671799  0.65235003     0.65000
H1266       H  0.23011431  0.56273002  0.62635875     0.10400
C1267       C  0.27278784  0.62670228  0.56486964     0.63400
H1268       H  0.30433151  0.61822547  0.58703824     0.07800
F1269       F  0.35214893  0.60314121  0.71215438    -0.19700
F1270       F  0.34005328  0.62663838  0.70130008    -0.15900
F1271       F  0.37166860  0.63253723  0.67960600    -0.19400
F1272       F  0.30496228  0.58454896  0.55242411    -0.22800
F1273       F  0.28336420  0.55207116  0.57708782    -0.24200
F1274       F  0.31594910  0.55946981  0.55662931    -0.18200
F1275       F  0.29483992  0.64289347  0.56303493    -0.20700
F1276       F  0.26128113  0.63625627  0.57773618    -0.21900
F1277       F  0.26543476  0.61954560  0.53425329    -0.19100
F1278       F  0.24103664  0.54278294  0.66074122    -0.19100
F1279       F  0.27450356  0.56722516  0.67960417    -0.23000
F1280       F  0.27113743  0.54388592  0.64007584    -0.24600
C1281       C  0.41282361  0.72874141  0.28956010    -0.11400
C1282       C  0.39989866  0.70926740  0.30683921     0.11200
C1283       C  0.38826581  0.70968429  0.33404969    -0.03200
C1284       C  0.38894295  0.72959009  0.34200654    -0.05900
C1285       C  0.40177910  0.74926824  0.32471583    -0.16700
C1286       C  0.41434823  0.74897743  0.29829060     0.02200
C1287       C  0.40009119  0.68899538  0.29685800     0.12200
C1288       C  0.37579578  0.68940702  0.35511810     0.62800
H1289       H  0.37968007  0.72999096  0.36241590     0.12200
C1290       C  0.43007365  0.76986793  0.28020581     0.54900
H1291       H  0.42203343  0.72794689  0.26934559     0.08000
C1292       C  0.38561006  0.67468992  0.27322437    -0.05800
C1293       C  0.38727811  0.65611006  0.26435963    -0.06600
C1294       C  0.40352621  0.65203165  0.27734624    -0.16100
C1295       C  0.41839570  0.66682195  0.30049472    -0.01700
C1296       C  0.41616558  0.68496516  0.31010561    -0.09300
C1297       C  0.36925211  0.67965663  0.25643911     0.65000
H1298       H  0.37627704  0.64493472  0.24630997     0.10400
C1299       C  0.43728089  0.66432539  0.31374858     0.63400
H1300       H  0.42731444  0.69655962  0.32765669     0.07800
F1301       F  0.41823923  0.77770610  0.26369541    -0.19700
F1302       F  0.44268756  0.76605385  0.25840839    -0.15900
F1303       F  0.44442276  0.78590352  0.30125464    -0.19400
F1304       F  0.39018838  0.68290354  0.36683855    -0.22800
F1305       F  0.35935539  0.67214234  0.33792906    -0.24200
F1306       F  0.36605789  0.69362821  0.38082373    -0.18200
F1307       F  0.44981710  0.66329218  0.28900814    -0.20700
F1308       F  0.42900150  0.64525022  0.33180729    -0.21900
F1309       F  0.45113174  0.68201200  0.33300666    -0.19100
F1310       F  0.35626445  0.66325340  0.23482292    -0.19100
F1311       F  0.38059642  0.69942562  0.24006084    -0.23000
F1312       F  0.35540392  0.68139085  0.27828755    -0.24600
C1313       C  0.31919411  0.58613001  0.10226645    -0.11400
C1314       C  0.30875217  0.59128051  0.12655418     0.11200
C1315       C  0.31759588  0.59532688  0.15767025    -0.03200
C1316       C  0.33745514  0.59523323  0.16304751    -0.05900
C1317       C  0.34832888  0.59034141  0.13873407    -0.16700
C1318       C  0.33871311  0.58529343  0.10768526     0.02200
C1319       C  0.28812339  0.59156511  0.11856009     0.12200
C1320       C  0.30580325  0.59917221  0.18523511     0.62800
H1321       H  0.34435289  0.59848773  0.18679815     0.12200
C1322       C  0.34879323  0.57931500  0.08003327     0.54900
H1323       H  0.31168980  0.58260257  0.07887937     0.08000
C1324       C  0.28856920  0.61052910  0.10549363    -0.05800
C1325       C  0.26845961  0.60915592  0.09663994    -0.06600
C1326       C  0.24819601  0.58937214  0.09960181    -0.16100
C1327       C  0.24781043  0.57034248  0.11224670    -0.01700
C1328       C  0.26785808  0.57185977  0.12190728    -0.09300
C1329       C  0.31025710  0.63168120  0.09919375     0.65000
H1330       H  0.26847075  0.62334549  0.08606318     0.10400
C1331       C  0.22648274  0.54828552  0.11378079     0.63400
H1332       H  0.26799734  0.55744071  0.13129551     0.07800
F1333       F  0.37028525  0.59605918  0.07532175    -0.19700
F1334       F  0.33733811  0.57651638  0.05189584    -0.15900
F1335       F  0.34840007  0.55962517  0.08628464    -0.19400
F1336       F  0.28508468  0.58081147  0.18904794    -0.22800
F1337       F  0.30351889  0.61744617  0.17936350    -0.24200
F1338       F  0.31720966  0.60275106  0.21360099    -0.18200
F1339       F  0.21178483  0.54995219  0.13403752    -0.20700
F1340       F  0.22991699  0.53151920  0.12484192    -0.21900
F1341       F  0.21723321  0.54240927  0.08371643    -0.19100
F1342       F  0.30690284  0.64869111  0.08902930    -0.19100
F1343       F  0.32185435  0.62780791  0.07581099    -0.23000
F1344       F  0.32295444  0.63870543  0.12651368    -0.24600
C1345       C  0.42722105  0.58909234  0.99674747    -0.11400
C1346       C  0.42615943  0.57141263  0.97932702     0.11200
C1347       C  0.42695493  0.55395218  0.99537403    -0.03200
C1348       C  0.42759003  0.55426315  0.02883166    -0.05900
C1349       C  0.42784288  0.57156579  0.04636975    -0.16700
C1350       C  0.42820127  0.58959877  0.03017576     0.02200
C1351       C  0.42614937  0.57278783  0.94413457     0.12200
C1352       C  0.42733265  0.53523052  0.97728286     0.62800
H1353       H  0.42774834  0.54085833  0.04166223     0.12200
C1354       C  0.43068928  0.60975336  0.04787641     0.54900
H1355       H  0.42746021  0.60264136  0.98376248     0.08000
C1356       C  0.40677374  0.56704405  0.92643849    -0.05800
C1357       C  0.40844649  0.56967190  0.89314510    -0.06600
C1358       C  0.42877750  0.57785993  0.87730811    -0.16100
C1359       C  0.44825289  0.58408181  0.89536394    -0.01700
C1360       C  0.44649464  0.58149633  0.92857650    -0.09300
C1361       C  0.38452377  0.55831388  0.94268493     0.65000
H1362       H  0.39378899  0.56519399  0.87912773     0.10400
C1363       C  0.47094871  0.59398691  0.88010207     0.63400
H1364       H  0.46109272  0.58626015  0.94290238     0.07800
F1365       F  0.41207403  0.60404057  0.06585707    -0.19700
F1366       F  0.43352727  0.62646740  0.02724185    -0.15900
F1367       F  0.44894262  0.61806652  0.06766372    -0.19400
F1368       F  0.44614161  0.54357616  0.95874512    -0.22800
F1369       F  0.40896464  0.52466886  0.95787059    -0.24200
F1370       F  0.42734137  0.51959714  0.99762534    -0.18200
F1371       F  0.48767465  0.60207062  0.90260979    -0.20700
F1372       F  0.47451584  0.61139832  0.86046305    -0.21900
F1373       F  0.47241838  0.57796198  0.86258332    -0.19100
F1374       F  0.36773452  0.55323051  0.92096734    -0.19100
F1375       F  0.38522860  0.57408301  0.96340972    -0.23000
F1376       F  0.37935309  0.53931038  0.95956181    -0.24600
C1377       C  0.43085085  0.56234802  0.42585074    -0.11400
C1378       C  0.43033893  0.57874914  0.44457038     0.11200
C1379       C  0.43181419  0.59769661  0.42977168    -0.03200
C1380       C  0.43219513  0.59881541  0.39622794    -0.05900
C1381       C  0.43229316  0.58217920  0.37729586    -0.16700
C1382       C  0.43200716  0.56375701  0.39238604     0.02200
C1383       C  0.42816275  0.57545406  0.47969981     0.12200
C1384       C  0.43345742  0.61678894  0.44943819     0.62800
H1385       H  0.43291152  0.61299931  0.38447836     0.12200
C1386       C  0.43244853  0.54536470  0.37344795     0.54900
H1387       H  0.43029193  0.54831691  0.43785710     0.08000
C1388       C  0.40731196  0.56286298  0.49452452    -0.05800
C1389       C  0.40641001  0.56019355  0.52785795    -0.06600
C1390       C  0.42567720  0.56890441  0.54645753    -0.16100
C1391       C  0.44660027  0.58138860  0.53146652    -0.01700
C1392       C  0.44741387  0.58442920  0.49822135    -0.09300
C1393       C  0.38619333  0.55175350  0.47498717     0.65000
H1394       H  0.39060637  0.55066621  0.53960712     0.10400
C1395       C  0.46800090  0.59190015  0.55042621     0.63400
H1396       H  0.46316835  0.59369264  0.48624693     0.07800
F1397       F  0.42882956  0.52769432  0.39258536    -0.19700
F1398       F  0.45286889  0.55333630  0.35918213    -0.15900
F1399       F  0.41614676  0.53748617  0.35035197    -0.19400
F1400       F  0.45230240  0.62559964  0.46803232    -0.22800
F1401       F  0.41524690  0.60947784  0.46902481    -0.24200
F1402       F  0.43460000  0.63356945  0.43045737    -0.18200
F1403       F  0.47188205  0.57560633  0.56217876    -0.20700
F1404       F  0.46664709  0.60410051  0.57545729    -0.21900
F1405       F  0.48595329  0.60603078  0.53192425    -0.19100
F1406       F  0.36762610  0.54113076  0.49404979    -0.19100
F1407       F  0.38654999  0.53615367  0.45498999    -0.23000
F1408       F  0.38429364  0.56726815  0.45684515    -0.24600
C1409       C  0.56673963  0.26630512  0.06549233    -0.11400
C1410       C  0.58721521  0.28550021  0.06027496     0.11200
C1411       C  0.60689531  0.28439318  0.06285400    -0.03200
C1412       C  0.60538050  0.26399716  0.07067138    -0.05900
C1413       C  0.58494134  0.24483207  0.07574045    -0.16700
C1414       C  0.56526796  0.24587032  0.07312467     0.02200
C1415       C  0.58765464  0.30661926  0.05229548     0.12200
C1416       C  0.62940845  0.30474127  0.05766008     0.62800
H1417       H  0.62023288  0.26290478  0.07346405     0.12200
C1418       C  0.54294524  0.22551749  0.07911700     0.54900
H1419       H  0.55190817  0.26752891  0.06375642     0.08000
C1420       C  0.58393665  0.31145448  0.02094220    -0.05800
C1421       C  0.58576364  0.33218553  0.01473873    -0.06600
C1422       C  0.59058074  0.34795081  0.03890102    -0.16100
C1423       C  0.59411533  0.34301851  0.07040762    -0.01700
C1424       C  0.59242836  0.32228354  0.07654583    -0.09300
C1425       C  0.57767392  0.29460907  0.99427424     0.65000
H1426       H  0.58288992  0.33607409  0.99087426     0.10400
C1427       C  0.60054953  0.35983458  0.09712852     0.63400
H1428       H  0.59504002  0.31814935  0.10039715     0.07800
F1429       F  0.52581525  0.22996037  0.07558134    -0.19700
F1430       F  0.54219677  0.21795347  0.10978167    -0.15900
F1431       F  0.53966432  0.20901517  0.05776610    -0.19400
F1432       F  0.63317164  0.32051456  0.08054596    -0.22800
F1433       F  0.63029985  0.31356937  0.02787578    -0.24200
F1434       F  0.64626933  0.29978310  0.05958482    -0.18200
F1435       F  0.60591356  0.35272591  0.12474932    -0.20700
F1436       F  0.58319348  0.36337996  0.10397114    -0.21900
F1437       F  0.61876973  0.37962181  0.08813430    -0.19100
F1438       F  0.57620478  0.30314513  0.96521154    -0.19100
F1439       F  0.55736237  0.27629506  0.00075345    -0.23000
F1440       F  0.59329201  0.28802501  0.99152178    -0.24600
C1441       C  0.73281541  0.41181842  0.89317064    -0.11400
C1442       C  0.71392566  0.40309787  0.87386510     0.11200
C1443       C  0.71413564  0.39446080  0.84356875    -0.03200
C1444       C  0.73338375  0.39460027  0.83369272    -0.05900
C1445       C  0.75276845  0.40380568  0.85244659    -0.16700
C1446       C  0.75237237  0.41235258  0.88310617     0.02200
C1447       C  0.69422103  0.40379173  0.88541565     0.12200
C1448       C  0.69425577  0.38563106  0.82140629     0.62800
H1449       H  0.73345564  0.38781850  0.81053808     0.12200
C1450       C  0.77232400  0.42231806  0.90504587     0.54900
H1451       H  0.73210403  0.41844848  0.91618986     0.08000
C1452       C  0.67807243  0.38684088  0.90469657    -0.05800
C1453       C  0.65893428  0.38769400  0.91248696    -0.06600
C1454       C  0.65592827  0.40530616  0.90261134    -0.16100
C1455       C  0.67279657  0.42295747  0.88489958    -0.01700
C1456       C  0.69159863  0.42169236  0.87620142    -0.09300
C1457       C  0.68141938  0.36838283  0.91776523     0.65000
H1458       H  0.64627627  0.37476550  0.92702728     0.10400
C1459       C  0.67146858  0.44344246  0.87644577     0.63400
H1460       H  0.70450414  0.43470258  0.86206462     0.07800
F1461       F  0.77770871  0.40632847  0.91311032    -0.19700
F1462       F  0.76832478  0.43028341  0.93299368    -0.15900
F1463       F  0.79006404  0.43983481  0.89008450    -0.19400
F1464       F  0.68992341  0.40241709  0.81385869    -0.22800
F1465       F  0.67588442  0.36863455  0.83596377    -0.24200
F1466       F  0.69776737  0.37751290  0.79323597    -0.18200
F1467       F  0.66808732  0.45252217  0.90370102    -0.20700
F1468       F  0.65422957  0.43781865  0.85553425    -0.21900
F1469       F  0.69066243  0.45951972  0.86214691    -0.19100
F1470       F  0.66350160  0.35337179  0.93557827    -0.19100
F1471       F  0.69985519  0.37733654  0.93720480    -0.23000
F1472       F  0.68443706  0.35696376  0.89317216    -0.24600
C1473       C  0.55320885  0.53116637  0.85678816    -0.11400
C1474       C  0.53214412  0.51926471  0.84288062     0.11200
C1475       C  0.52051250  0.49581473  0.84384009    -0.03200
C1476       C  0.53011794  0.48501657  0.85978627    -0.05900
C1477       C  0.55093995  0.49682436  0.87412751    -0.16700
C1478       C  0.56287169  0.52020257  0.87258215     0.02200
C1479       C  0.52226600  0.53145363  0.82745267     0.12200
C1480       C  0.49805682  0.48223649  0.82801704     0.62800
H1481       H  0.52139410  0.46709969  0.86124690     0.12200
C1482       C  0.58542568  0.53327640  0.88794004     0.54900
H1483       H  0.56187848  0.54907569  0.85541224     0.08000
C1484       C  0.50929912  0.53822438  0.84478850    -0.05800
C1485       C  0.49683940  0.54562658  0.82786814    -0.06600
C1486       C  0.49702505  0.54650142  0.79438727    -0.16100
C1487       C  0.51161698  0.54156013  0.77728736    -0.01700
C1488       C  0.52408742  0.53416062  0.79433560    -0.09300
C1489       C  0.50830978  0.53718013  0.88093405     0.65000
H1490       H  0.48603241  0.54985721  0.84076585     0.10400
C1491       C  0.51412381  0.54395263  0.74136068     0.63400
H1492       H  0.53450856  0.52924648  0.78175523     0.07800
F1493       F  0.59410302  0.55588413  0.88440058    -0.19700
F1494       F  0.59982932  0.52752897  0.87406026    -0.15900
F1495       F  0.58383828  0.52857778  0.92013297    -0.19400
F1496       F  0.49996070  0.48618876  0.79562250    -0.22800
F1497       F  0.48319176  0.48787494  0.84044663    -0.24200
F1498       F  0.48948800  0.45973045  0.83255945    -0.18200
F1499       F  0.51721376  0.56438696  0.73219694    -0.20700
F1500       F  0.49547953  0.52734511  0.72666762    -0.21900
F1501       F  0.53212788  0.54246353  0.73079884    -0.19100
F1502       F  0.49484673  0.54476766  0.89308648    -0.19100
F1503       F  0.52927052  0.55022801  0.89329396    -0.23000
F1504       F  0.50015907  0.51562228  0.89112400    -0.24600
C1505       C  0.49169547  0.48416926  0.04310301    -0.11400
C1506       C  0.48550548  0.47495183  0.07361900     0.11200
C1507       C  0.48855069  0.45705801  0.08234002    -0.03200
C1508       C  0.49966595  0.45032071  0.06112305    -0.05900
C1509       C  0.50763155  0.46076268  0.03153293    -0.16700
C1510       C  0.50296197  0.47757706  0.02180951     0.02200
C1511       C  0.47791786  0.48589499  0.09685122     0.12200
C1512       C  0.48035256  0.44537756  0.11408808     0.62800
H1513       H  0.50285539  0.43718018  0.06797257     0.12200
C1514       C  0.51090124  0.48952517  0.99013726     0.54900
H1515       H  0.48869339  0.49753068  0.03685459     0.08000
C1516       C  0.49328662  0.50511952  0.11370964    -0.05800
C1517       C  0.48527484  0.51556882  0.13406087    -0.06600
C1518       C  0.46259844  0.50747136  0.13794625    -0.16100
C1519       C  0.44721634  0.48782956  0.12210352    -0.01700
C1520       C  0.45517192  0.47737358  0.10145523    -0.09300
C1521       C  0.51807059  0.51475347  0.10986490     0.65000
H1522       H  0.49671453  0.53067546  0.14637763     0.10400
C1523       C  0.42263009  0.47790353  0.12760975     0.63400
H1524       H  0.44372481  0.46261141  0.08847801     0.07800
F1525       F  0.50561096  0.50611119  0.98659356    -0.19700
F1526       F  0.50108800  0.47467676  0.96537033    -0.15900
F1527       F  0.53362536  0.49918891  0.98800229    -0.19400
F1528       F  0.45763732  0.43582203  0.11551984    -0.22800
F1529       F  0.48967204  0.46030114  0.13886356    -0.24200
F1530       F  0.48561564  0.42882353  0.11829005    -0.18200
F1531       F  0.41046678  0.45816540  0.11124834    -0.20700
F1532       F  0.41587388  0.49250493  0.11760472    -0.21900
F1533       F  0.41815949  0.47372676  0.15973356    -0.19100
F1534       F  0.52997171  0.53295826  0.12936541    -0.19100
F1535       F  0.52418490  0.52142067  0.07875837    -0.23000
F1536       F  0.52385587  0.49902489  0.11762141    -0.24600
C1537       C  0.59524457  0.32044290  0.55648275    -0.11400
C1538       C  0.60316166  0.31086249  0.53457112     0.11200
C1539       C  0.60961619  0.32006409  0.50390862    -0.03200
C1540       C  0.60915862  0.33953539  0.49680884    -0.05900
C1541       C  0.60117318  0.34943020  0.51854441    -0.16700
C1542       C  0.59369040  0.33936896  0.54897446     0.02200
C1543       C  0.60285115  0.29014389  0.54375032     0.12200
C1544       C  0.61609798  0.30885104  0.47837253     0.62800
H1545       H  0.61459261  0.34681602  0.47349600     0.12200
C1546       C  0.58337436  0.34773936  0.57319114     0.54900
H1547       H  0.58981638  0.31254005  0.57947677     0.08000
C1548       C  0.62014730  0.29025603  0.56149035    -0.05800
C1549       C  0.61796670  0.26984068  0.57072873    -0.06600
C1550       C  0.59914955  0.24960143  0.56286432    -0.16100
C1551       C  0.58190183  0.24955742  0.54507963    -0.01700
C1552       C  0.58409572  0.26996107  0.53580874    -0.09300
C1553       C  0.64053206  0.31179943  0.57116863     0.65000
H1554       H  0.63075683  0.26949424  0.58490169     0.10400
C1555       C  0.56084590  0.22816504  0.53732059     0.63400
H1556       H  0.57095771  0.27040395  0.52270599     0.07800
F1557       F  0.57613485  0.33449764  0.60006018    -0.19700
F1558       F  0.56527060  0.34776380  0.55982421    -0.15900
F1559       F  0.59871456  0.36891206  0.58290528    -0.19400
F1560       F  0.59829490  0.28822259  0.47152651    -0.22800
F1561       F  0.63347626  0.30630555  0.48874788    -0.24200
F1562       F  0.62249320  0.32094068  0.45039926    -0.18200
F1563       F  0.55122269  0.21675277  0.56508112    -0.20700
F1564       F  0.56566551  0.21516006  0.51780687    -0.21900
F1565       F  0.54558987  0.23199829  0.52175815    -0.19100
F1566       F  0.65528124  0.30808714  0.58842401    -0.19100
F1567       F  0.63447239  0.32424506  0.58985170    -0.23000
F1568       F  0.65134166  0.32388249  0.54443553    -0.24600
C1569       C  0.73166661  0.41263276  0.38070419    -0.11400
C1570       C  0.71753151  0.41382891  0.35812334     0.11200
C1571       C  0.72232357  0.41432869  0.32538152    -0.03200
C1572       C  0.74096284  0.41294284  0.31626198    -0.05900
C1573       C  0.75512604  0.41125646  0.33866506    -0.16700
C1574       C  0.75041098  0.41122560  0.37172419     0.02200
C1575       C  0.69787943  0.41483698  0.36939494     0.12200
C1576       C  0.70778955  0.41637506  0.30017225     0.62800
H1577       H  0.74468168  0.41338395  0.29118275     0.12200
C1578       C  0.76459435  0.40936889  0.39765510     0.54900
H1579       H  0.72774169  0.41273386  0.40561848     0.08000
C1580       C  0.67792981  0.39555204  0.37769124    -0.05800
C1581       C  0.65961409  0.39768792  0.38637309    -0.06600
C1582       C  0.66072096  0.41839716  0.38712623    -0.16100
C1583       C  0.68101062  0.43780915  0.37983453    -0.01700
C1584       C  0.69929712  0.43560076  0.37119109    -0.09300
C1585       C  0.67611304  0.37288504  0.37766855     0.65000
H1586       H  0.64416695  0.38309975  0.39262042     0.10400
C1587       C  0.68367879  0.46081619  0.38200934     0.63400
H1588       H  0.71490336  0.45010510  0.36527580     0.07800
F1589       F  0.76619654  0.39056043  0.39284824    -0.19700
F1590       F  0.75576664  0.40784940  0.42767780    -0.15900
F1591       F  0.78542641  0.42792427  0.39735891    -0.19400
F1592       F  0.70823018  0.43633374  0.30364826    -0.22800
F1593       F  0.68626259  0.39927230  0.30323860    -0.24200
F1594       F  0.71481527  0.41556581  0.26964491    -0.18200
F1595       F  0.70543452  0.47728618  0.37789935    -0.20700
F1596       F  0.67688497  0.46379967  0.41162885    -0.21900
F1597       F  0.67121930  0.46340892  0.35861597    -0.19100
F1598       F  0.65494832  0.35621598  0.38496733    -0.19100
F1599       F  0.69037427  0.37243820  0.40009404    -0.23000
F1600       F  0.68153325  0.36837575  0.34802373    -0.24600
C1601       C  0.59820909  0.42440978  0.74357817    -0.11400
C1602       C  0.58060483  0.42526979  0.72903308     0.11200
C1603       C  0.56520031  0.42764851  0.74814354    -0.03200
C1604       C  0.56804248  0.42908247  0.78150327    -0.05900
C1605       C  0.58572254  0.42822658  0.79622288    -0.16700
C1606       C  0.60142452  0.42640715  0.77677491     0.02200
C1607       C  0.57890414  0.42365430  0.69363456     0.12200
C1608       C  0.54586216  0.42863344  0.73330497     0.62800
H1609       H  0.55624612  0.43062615  0.79645252     0.12200
C1610       C  0.62221733  0.42788812  0.79055750     0.54900
H1611       H  0.60967319  0.42242663  0.72846167     0.08000
C1612       C  0.59239764  0.44190151  0.67370601    -0.05800
C1613       C  0.59024302  0.43902044  0.64042943    -0.06600
C1614       C  0.57539844  0.41853998  0.62673238    -0.16100
C1615       C  0.56203104  0.40028590  0.64654898    -0.01700
C1616       C  0.56410072  0.40312988  0.67984324    -0.09300
C1617       C  0.60916029  0.46423349  0.68751046     0.65000
H1618       H  0.60038550  0.45270019  0.62472685     0.10400
C1619       C  0.54567127  0.37799936  0.63238138     0.63400
H1620       H  0.55424133  0.38929945  0.69546343     0.07800
F1621       F  0.63686749  0.42959866  0.76702406    -0.19700
F1622       F  0.61693628  0.40917895  0.80827778    -0.15900
F1623       F  0.63283879  0.44653009  0.80959337    -0.19400
F1624       F  0.53204896  0.40885726  0.71807986    -0.22800
F1625       F  0.55346584  0.44567309  0.71140015    -0.24200
F1626       F  0.53356538  0.43225128  0.75589540    -0.18200
F1627       F  0.55679805  0.37011599  0.61422712    -0.20700
F1628       F  0.53078354  0.38026957  0.61327502    -0.21900
F1629       F  0.53390624  0.36248226  0.65566196    -0.19100
F1630       F  0.61935196  0.48007378  0.66402788    -0.19100
F1631       F  0.62536042  0.46233315  0.70372455    -0.23000
F1632       F  0.59887540  0.47164739  0.70825377    -0.24600
C1633       C  0.59029317  0.42908271  0.24604762    -0.11400
C1634       C  0.58359700  0.44214163  0.22936468     0.11200
C1635       C  0.57853028  0.45660793  0.24638975    -0.03200
C1636       C  0.57967123  0.45690846  0.27989199    -0.05900
C1637       C  0.58635033  0.44380237  0.29686114    -0.16700
C1638       C  0.59243478  0.43005407  0.27946321     0.02200
C1639       C  0.58114037  0.43949508  0.19413098     0.12200
C1640       C  0.57218348  0.47184383  0.22923861     0.62800
H1641       H  0.57543831  0.46760904  0.29316730     0.12200
C1642       C  0.60098754  0.41624697  0.29560725     0.54900
H1643       H  0.59388698  0.41804442  0.23242842     0.08000
C1644       C  0.59955789  0.44849161  0.17326718    -0.05800
C1645       C  0.59578903  0.44480473  0.14028473    -0.06600
C1646       C  0.57436783  0.43268120  0.12782489    -0.16100
C1647       C  0.55599346  0.42380092  0.14856189    -0.01700
C1648       C  0.55973717  0.42701853  0.18156258    -0.09300
C1649       C  0.62304549  0.46191435  0.18570434     0.65000
H1650       H  0.60956385  0.45146786  0.12384774     0.10400
C1651       C  0.53260076  0.41096149  0.13570655     0.63400
H1652       H  0.54592752  0.41993249  0.19793158     0.07800
F1653       F  0.60418091  0.40297968  0.27416980    -0.19700
F1654       F  0.58603457  0.40255325  0.31823099    -0.15900
F1655       F  0.62112945  0.43007644  0.30988676    -0.19400
F1656       F  0.55249683  0.45951121  0.21310511    -0.22800
F1657       F  0.58850095  0.48491362  0.20773768    -0.24200
F1658       F  0.56954972  0.48573407  0.25016147    -0.18200
F1659       F  0.52997843  0.39283081  0.11857677    -0.20700
F1660       F  0.52854247  0.42442798  0.11597270    -0.21900
F1661       F  0.51705664  0.40343797  0.15985683    -0.19100
F1662       F  0.63821128  0.47103699  0.16118690    -0.19100
F1663       F  0.62836170  0.44848369  0.20334776    -0.23000
F1664       F  0.62506224  0.47904568  0.20471089    -0.24600
C1665       C  0.55323455  0.52829448  0.35166644    -0.11400
C1666       C  0.53320286  0.52695779  0.36025206     0.11200
C1667       C  0.52232093  0.51562011  0.38845269    -0.03200
C1668       C  0.53157841  0.50529073  0.40662810    -0.05900
C1669       C  0.55077562  0.50522376  0.39682393    -0.16700
C1670       C  0.56234520  0.51768778  0.36958832     0.02200
C1671       C  0.52283431  0.53560482  0.33771679     0.12200
C1672       C  0.50022502  0.51310445  0.39815433     0.62800
H1673       H  0.52287017  0.49566833  0.42736806     0.12200
C1674       C  0.58398297  0.51953869  0.35894032     0.54900
H1675       H  0.56120172  0.53688865  0.32989809     0.08000
C1676       C  0.52818705  0.55804368  0.33724408    -0.05800
C1677       C  0.51591000  0.56426896  0.31734278    -0.06600
C1678       C  0.49917736  0.54896451  0.29706230    -0.16100
C1679       C  0.49492094  0.52669341  0.29616595    -0.01700
C1680       C  0.50688743  0.52052327  0.31666088    -0.09300
C1681       C  0.54686585  0.57524609  0.35752888     0.65000
H1682       H  0.51926833  0.58122139  0.31753518     0.10400
C1683       C  0.47732265  0.50910290  0.27476103     0.63400
H1684       H  0.50360614  0.50359255  0.31697024     0.07800
F1685       F  0.59521163  0.53702856  0.33807545    -0.19700
F1686       F  0.57991391  0.50027634  0.34363273    -0.15900
F1687       F  0.59754921  0.52313810  0.38493928    -0.19400
F1688       F  0.48413526  0.49941539  0.37673809    -0.22800
F1689       F  0.50139985  0.53351287  0.39853753    -0.24200
F1690       F  0.49388422  0.50392831  0.42819170    -0.18200
F1691       F  0.48304214  0.51452911  0.24318915    -0.20700
F1692       F  0.45708273  0.50750617  0.28064783    -0.21900
F1693       F  0.47499098  0.48838889  0.27979393    -0.19100
F1694       F  0.54912080  0.59604725  0.35412024    -0.19100
F1695       F  0.56653540  0.57657965  0.34850881    -0.23000
F1696       F  0.54302056  0.56942948  0.38929875    -0.24600
C1697       C  0.48723289  0.47332697  0.55644640    -0.11400
C1698       C  0.48152977  0.46522983  0.58750473     0.11200
C1699       C  0.48569889  0.44843575  0.59805449    -0.03200
C1700       C  0.49837847  0.44253430  0.57856753    -0.05900
C1701       C  0.50615872  0.45219847  0.54832877    -0.16700
C1702       C  0.49913821  0.46687814  0.53623863     0.02200
C1703       C  0.47298728  0.47622637  0.60896334     0.12200
C1704       C  0.47634538  0.43653781  0.62937321     0.62800
H1705       H  0.50260235  0.43050105  0.58730521     0.12200
C1706       C  0.50416217  0.47616903  0.50260465     0.54900
H1707       H  0.48310165  0.48565635  0.54868259     0.08000
C1708       C  0.48768212  0.49596839  0.62539786    -0.11800
C1709       C  0.47891988  0.50728126  0.64221246    -0.06600
C1710       C  0.45617269  0.49954358  0.64301268    -0.16100
C1711       C  0.44138442  0.47924637  0.62814538    -0.01700
C1712       C  0.45010109  0.46794321  0.61086702    -0.09300
C1713       C  0.51255892  0.50528677  0.62472283     0.65000
H1714       H  0.48986187  0.52270402  0.65425850     0.10400
C1715       C  0.41664587  0.46954627  0.63124084     0.63400
H1716       H  0.43917705  0.45276755  0.59829730     0.07800
F1717       F  0.49267660  0.48701259  0.49502688    -0.19700
F1718       F  0.49799151  0.45913683  0.48086310    -0.15900
F1719       F  0.52644851  0.49125012  0.49959918    -0.19400
F1720       F  0.45353238  0.42547275  0.62784218    -0.22800
F1721       F  0.48316640  0.45144039  0.65434511    -0.24200
F1722       F  0.48291068  0.42116872  0.63577988    -0.18200
F1723       F  0.40506956  0.44915723  0.61630832    -0.20700
F1724       F  0.41041231  0.48370046  0.61773355    -0.21900
F1725       F  0.41091701  0.46672346  0.66311708    -0.19100
F1726       F  0.52367661  0.52446695  0.64264158    -0.19100
F1727       F  0.52024342  0.51024674  0.59381897    -0.23000
F1728       F  0.51766649  0.48997107  0.63696677    -0.24600
loop_ 
_geom_bond_atom_site_label_1 
_geom_bond_atom_site_label_2 
_geom_bond_distance 
_geom_bond_site_symmetry_2 
_ccdc_geom_bond_type 
O1           Mg3   2.140       .  S
O1           Mg9   2.143       .  S
O1           C36   1.238       .  S
C2           O15   1.236       .  S
C2           O39   1.268       .  A
C2           H41   1.081       .  S
Mg3          O32   2.152       .  S
Mg3          O47   2.338       .  S
Mg3          O43   2.278       .  S
Mg3          O14   2.312       .  S
O4          Mg46   2.150       .  S
O4          Mg29   2.127       .  S
O4           C25   1.235       .  S
O5           C36   1.271       .  A
O5          Mg29   2.298       .  S
C6            O8   1.274       .  A
C6           O20   1.274       .  A
C6         C1701   1.504       .  S
O7           C35   1.273       .  A
O7           Mg9   2.306       .  S
O8          Mg40   2.271       .  S
Mg9          O15   2.120       .  S
Mg9          O23   2.236       .  S
Mg9          O11   2.306       .  S
C10          O48   1.276       .  A
C10          O16   1.274       .  A
C10        C1669   1.487       .  S
O11          C18   1.275       .  A
H12          C25   1.081       .  S
C13          O27   1.237       .  S
C13          O28   1.272       .  A
C13          H38   1.081       .  S
O14          C37   1.273       .  A
O15         Mg29   2.146       .  S
O16         Mg46   2.295       .  S
C17          O30   1.277       .  A
C17          O22   1.274       .  A
C17        C1637   1.497       .  S
C18          O45   1.271       .  A
C18        C1582   1.484       .  S
Mg19         O26   2.164       .  S
Mg19         O27   2.160       .  S
Mg19         O20   2.314       .  S
Mg19         O21   2.291       .  S
Mg19         O48   2.292       .  S
O21          C25   1.269       .  A
O22         Mg29   2.304       .  S
O23          C42   1.270       .  A
O24          C44   1.276       .  A
O24         Mg40   2.324       .  S
O26         Mg40   2.158       .  S
O26          C37   1.237       .  S
O27         Mg46   2.159       .  S
O28         Mg40   2.304       .  S
Mg29         O45   2.264       .  S
O30         Mg46   2.292       .  S
H31          C36   1.081       .  S
O32         Mg40   2.150       .  S
O32          C35   1.238       .  S
H33          C35   1.081       .  S
H34          C37   1.082       .  S
O39         Mg46   2.285       .  S
C42          O47   1.277       .  A
C42        C1541   1.502       .  S
O43          C44   1.273       .  A
C44        C1614   1.479       .  S
O49         Mg51   2.152       .  S
O49         Mg57   2.136       .  S
O49          C84   1.238       .  S
C50          O63   1.236       .  S
C50          O87   1.269       .  A
C50          H89   1.081       .  S
Mg51         O80   2.151       .  S
Mg51         O95   2.335       .  S
Mg51         O91   2.277       .  S
Mg51         O62   2.307       .  S
O52         Mg94   2.152       .  S
O52         Mg77   2.136       .  S
O52          C73   1.236       .  S
O53          C84   1.273       .  A
O53         Mg77   2.311   1_556  S
C54          O56   1.273       .  A
C54          O68   1.275       .  A
C54        C1477   1.473       .  S
O55          C83   1.275       .  A
O55         Mg57   2.318       .  S
O56         Mg88   2.276       .  S
Mg57         O63   2.116   1_556  S
Mg57         O71   2.232       .  S
Mg57         O59   2.317   1_556  S
C58          O96   1.273   1_554  A
C58          O64   1.275       .  A
C58        C1509   1.490       .  S
O59          C66   1.276       .  A
H60          C73   1.081       .  S
C61          O75   1.236       .  S
C61          O76   1.270       .  A
C61          H86   1.082       .  S
O62          C85   1.272       .  A
O63         Mg77   2.137       .  S
O64         Mg94   2.291       .  S
C65          O78   1.273       .  A
C65          O70   1.278       .  A
C65        C1646   1.476       .  S
C66          O93   1.274       .  A
C66        C1422   1.491       .  S
Mg67         O74   2.155       .  S
Mg67         O75   2.156       .  S
Mg67         O68   2.303       .  S
Mg67         O69   2.289       .  S
Mg67         O96   2.285       .  S
O69          C73   1.269   1_556  A
O70         Mg77   2.328       .  S
O71          C90   1.268       .  A
O72          C92   1.278       .  A
O72         Mg88   2.330       .  S
O74         Mg88   2.159       .  S
O74          C85   1.237       .  S
O75         Mg94   2.148   1_556  S
O76         Mg88   2.299       .  S
Mg77         O93   2.290       .  S
O78         Mg94   2.266       .  S
H79          C84   1.081       .  S
O80         Mg88   2.158       .  S
O80          C83   1.240       .  S
H81          C83   1.081       .  S
H82          C85   1.082       .  S
O87         Mg94   2.287       .  S
C90          O95   1.277       .  A
C90        C1454   1.481       .  S
O91          C92   1.273       .  A
C92        C1605   1.495       .  S
O97         Mg99   2.147       .  S
O97        Mg105   2.144       .  S
O97         C132   1.237       .  S
C98         O111   1.237       .  S
C98         O135   1.270       .  A
C98         H137   1.081       .  S
Mg99        O128   2.161       .  S
Mg99        O143   2.329       .  S
Mg99        O139   2.290       .  S
Mg99        O110   2.310       .  S
O100       Mg142   2.149       .  S
O100       Mg125   2.136       .  S
O100        C121   1.235       .  S
O101        C132   1.271       .  A
O101       Mg125   2.301       .  S
C102        O104   1.274       .  A
C102        O116   1.274       .  A
C102       C1678   1.494       .  S
O103        C131   1.274       .  A
O103       Mg105   2.314       .  S
O104       Mg136   2.283       .  S
Mg105       O111   2.122       .  S
Mg105       O119   2.237       .  S
Mg105       O107   2.312       .  S
C106        O144   1.275       .  A
C106        O112   1.275       .  A
C106       C1518   1.478       .  S
O107        C114   1.277       .  A
H108        C121   1.080       .  S
C109        O123   1.236       .  S
C109        O124   1.271       .  A
C109        H134   1.079       .  S
O110        C133   1.272       .  A
O111       Mg125   2.146       .  S
O112       Mg142   2.306       .  S
C113        O126   1.273       .  A
C113        O118   1.274       .  A
C113       C1349   1.478       .  S
C114        O141   1.272       .  A
C114       C1317   1.502       .  S
Mg115       O122   2.164       .  S
Mg115       O123   2.155       .  S
Mg115       O116   2.310       .  S
Mg115       O117   2.291       .  S
Mg115       O144   2.292       .  S
O117        C121   1.268       .  A
O118       Mg125   2.298       .  S
O119        C138   1.269       .  A
O120        C140   1.274       .  A
O120       Mg136   2.305       .  S
O122       Mg136   2.160       .  S
O122        C133   1.236       .  S
O123       Mg142   2.148       .  S
O124       Mg136   2.299       .  S
Mg125       O141   2.284       .  S
O126       Mg142   2.267       .  S
H127        C132   1.084       .  S
O128       Mg136   2.163       .  S
O128        C131   1.238       .  S
H129        C131   1.082       .  S
H130        C133   1.081       .  S
O135       Mg142   2.292       .  S
C138        O143   1.277       .  A
C138       C1294   1.485       .  S
O139        C140   1.275       .  A
C140       C1381   1.490       .  S
O145       Mg147   2.142       .  S
O145       Mg153   2.145       .  S
O145        C180   1.239       .  S
C146        O159   1.236       .  S
C146        O183   1.269       .  A
C146        H185   1.082       .  S
Mg147       O176   2.153       .  S
Mg147       O191   2.329       .  S
Mg147       O187   2.276       .  S
Mg147       O158   2.305       .  S
O148       Mg190   2.151       .  S
O148       Mg173   2.150       .  S
O148        C169   1.237       .  S
O149        C180   1.273       .  A
O149       Mg173   2.305       .  S
C150        O152   1.271       .  A
C150        O164   1.274       .  A
C150       C1486   1.488       .  S
O151        C179   1.271       .  A
O151       Mg153   2.297       .  S
O152       Mg184   2.255       .  S
Mg153       O159   2.123       .  S
Mg153       O167   2.239       .  S
Mg153       O155   2.290       .  S
C154        O192   1.272       .  A
C154        O160   1.278       .  A
C154       C1710   1.476       .  S
O155        C162   1.270       .  A
H156        C169   1.081       .  S
C157        O171   1.236       .  S
C157        O172   1.270       .  A
C157        H182   1.081       .  S
O158        C181   1.272       .  A
O159       Mg173   2.145       .  S
O160       Mg190   2.328       .  S
C161        O174   1.274       .  A
C161        O166   1.280       .  A
C161       C1390   1.488       .  S
C162        O189   1.278       .  A
C162       C1253   1.507       .  S
Mg163       O170   2.149       .  S
Mg163       O171   2.148       .  S
Mg163       O164   2.312       .  S
Mg163       O165   2.300       .  S
Mg163       O192   2.262       .  S
O165        C169   1.271       .  A
O166       Mg173   2.334       .  S
O167        C186   1.271       .  A
O168        C188   1.272       .  A
O168       Mg184   2.295       .  S
O170       Mg184   2.158       .  S
O170        C181   1.237       .  S
O171       Mg190   2.147       .  S
O172       Mg184   2.298       .  S
Mg173       O189   2.304       .  S
O174       Mg190   2.273       .  S
H175        C180   1.082       .  S
O176       Mg184   2.133       .  S
O176        C179   1.237       .  S
H177        C179   1.081       .  S
H178        C181   1.081       .  S
O183       Mg190   2.290       .  S
C186        O191   1.276       .  A
C186       C1230   1.495       .  S
O187        C188   1.274       .  A
C188       C1358   1.485       .  S
O193       Mg195   2.127       .  S
O193       Mg201   2.139       .  S
O193        C228   1.237       .  S
C194        O207   1.236       .  S
C194        O231   1.268       .  A
C194        H233   1.079       .  S
Mg195       O224   2.153       .  S
Mg195       O239   2.340       .  S
Mg195       O235   2.252       .  S
Mg195       O206   2.317       .  S
O196       Mg238   2.146       .  S
O196       Mg221   2.134       .  S
O196        C217   1.234       .  S
O197        C228   1.270       .  A
O197       Mg221   2.293   1_554  S
C198        O200   1.273       .  A
C198        O212   1.274       .  A
C198       C1102   1.491       .  S
O199        C227   1.274       .  A
O199       Mg201   2.312       .  S
O200       Mg232   2.275       .  S
Mg201       O207   2.118   1_554  S
Mg201       O215   2.249       .  S
Mg201       O203   2.273   1_554  S
C202        O240   1.276   1_556  A
C202        O208   1.276       .  A
C202       C1198   1.489       .  S
O203        C210   1.270       .  A
H204        C217   1.081       .  S
C205        O219   1.236       .  S
C205        O220   1.272       .  A
C205        H230   1.080       .  S
O206        C229   1.273       .  A
O207       Mg221   2.153       .  S
O208       Mg238   2.314       .  S
C209        O222   1.276       .  A
C209        O214   1.275       .  A
C209       C1134   1.487       .  S
C210        O237   1.275       .  A
C210       C1061   1.487       .  S
Mg211       O218   2.172       .  S
Mg211       O219   2.158       .  S
Mg211       O212   2.309       .  S
Mg211       O213   2.290       .  S
Mg211       O240   2.285       .  S
O213        C217   1.267   1_554  A
O214       Mg221   2.305       .  S
O215        C234   1.268       .  A
O216        C236   1.277       .  A
O216       Mg232   2.326       .  S
O218       Mg232   2.158       .  S
O218        C229   1.237       .  S
O219       Mg238   2.158   1_554  S
O220       Mg232   2.306       .  S
Mg221       O237   2.291       .  S
O222       Mg238   2.271       .  S
H223        C228   1.085       .  S
O224       Mg232   2.160       .  S
O224        C227   1.239       .  S
H225        C227   1.079       .  S
H226        C229   1.081       .  S
O231       Mg238   2.286       .  S
C234        O239   1.277       .  A
C234       C1326   1.482       .  S
O235        C236   1.269       .  A
C236       C1166   1.487       .  S
O241       Mg243   2.120       .  S
O241       Mg249   2.136       .  S
O241        C276   1.239       .  S
C242        O255   1.236       .  S
C242        O279   1.268       .  A
C242        H281   1.081       .  S
Mg243       O272   2.149       .  S
Mg243       O287   2.367       .  S
Mg243       O283   2.240       .  S
Mg243       O254   2.318       .  S
O244       Mg286   2.148       .  S
O244       Mg269   2.132       .  S
O244        C265   1.235       .  S
O245        C276   1.272       .  A
O245       Mg269   2.299       .  S
C246        O248   1.269       .  A
C246        O260   1.276       .  A
C246        C997   1.482       .  S
O247        C275   1.272       .  A
O247       Mg249   2.303       .  S
O248       Mg280   2.247       .  S
Mg249       O255   2.120       .  S
Mg249       O263   2.233       .  S
Mg249       O251   2.265       .  S
C250        O288   1.276       .  A
C250        O256   1.274       .  A
C250       C1029   1.492       .  S
O251        C258   1.271       .  A
H252        C265   1.080       .  S
C253        O267   1.237       .  S
C253        O268   1.271       .  A
C253        H278   1.081       .  S
O254        C277   1.273       .  A
O255       Mg269   2.152       .  S
O256       Mg286   2.308       .  S
C257        O270   1.274       .  A
C257        O262   1.279       .  A
C257       C1157   1.484       .  S
C258        O285   1.274       .  A
C258        C965   1.490       .  S
Mg259       O266   2.171       .  S
Mg259       O267   2.155       .  S
Mg259       O260   2.318       .  S
Mg259       O261   2.291       .  S
Mg259       O288   2.285       .  S
O261        C265   1.268       .  A
O262       Mg269   2.326       .  S
O263        C282   1.266       .  A
O264        C284   1.276       .  A
O264       Mg280   2.325       .  S
O266       Mg280   2.156       .  S
O266        C277   1.237       .  S
O267       Mg286   2.146       .  S
O268       Mg280   2.300       .  S
Mg269       O285   2.290       .  S
O270       Mg286   2.262       .  S
H271        C276   1.081       .  S
O272       Mg280   2.149       .  S
O272        C275   1.238       .  S
H273        C275   1.083       .  S
H274        C277   1.082       .  S
O279       Mg286   2.285       .  S
C282        O287   1.281       .  A
C282       C1262   1.491       .  S
O283        C284   1.270       .  A
C284       C1125   1.478       .  S
O289       Mg291   2.127       .  S
O289       Mg297   2.135       .  S
O289        C324   1.238       .  S
C290        O303   1.235       .  S
C290        O327   1.268       .  A
C290        H329   1.081       .  S
Mg291       O320   2.154       .  S
Mg291       O335   2.325       .  S
Mg291       O331   2.255       .  S
Mg291       O302   2.313       .  S
O292       Mg334   2.149       .  S
O292       Mg317   2.138       .  S
O292        C313   1.236       .  S
O293        C324   1.272       .  A
O293       Mg317   2.297       .  S
C294        O296   1.273       .  A
C294        O308   1.276       .  A
C294       C1038   1.490       .  S
O295        C323   1.274       .  A
O295       Mg297   2.310       .  S
O296       Mg328   2.275       .  S
Mg297       O303   2.119       .  S
Mg297       O311   2.257       .  S
Mg297       O299   2.288       .  S
C298        O336   1.276       .  A
C298        O304   1.275       .  A
C298       C1093   1.489       .  S
O299        C306   1.272       .  A
H300        C313   1.080       .  S
C301        O315   1.236       .  S
C301        O316   1.271       .  A
C301        H326   1.081       .  S
O302        C325   1.273       .  A
O303       Mg317   2.149       .  S
O304       Mg334   2.305       .  S
C305        O318   1.277       .  A
C305        O310   1.276       .  A
C305        C933   1.497       .  S
C306        O333   1.275       .  A
C306        C878   1.483       .  S
Mg307       O314   2.169       .  S
Mg307       O315   2.153       .  S
Mg307       O308   2.317       .  S
Mg307       O309   2.294       .  S
Mg307       O336   2.290       .  S
O309        C313   1.269       .  A
O310       Mg317   2.314       .  S
O311        C330   1.271       .  A
O312        C332   1.275       .  A
O312       Mg328   2.322       .  S
O314       Mg328   2.164       .  S
O314        C325   1.237       .  S
O315       Mg334   2.162       .  S
O316       Mg328   2.306       .  S
Mg317       O333   2.295       .  S
O318       Mg334   2.285       .  S
H319        C324   1.081       .  S
O320       Mg328   2.152       .  S
O320        C323   1.239       .  S
H321        C323   1.082       .  S
H322        C325   1.082       .  S
O327       Mg334   2.283       .  S
C330        O335   1.274       .  A
C330       C1573   1.500       .  S
O331        C332   1.271       .  A
C332        C901   1.499       .  S
O337       Mg339   2.137       .  S
O337       Mg345   2.137       .  S
O337        C372   1.237       .  S
C338        O351   1.235       .  S
C338        O375   1.267       .  A
C338        H377   1.081       .  S
Mg339       O368   2.165       .  S
Mg339       O383   2.345       .  S
Mg339       O379   2.269       .  S
Mg339       O350   2.309       .  S
O340       Mg382   2.154       .  S
O340       Mg365   2.135       .  S
O340        C361   1.235       .  S
O341        C372   1.271       .  A
O341       Mg365   2.297       .  S
C342        O344   1.274       .  A
C342        O356   1.277       .  A
C342       C1189   1.496       .  S
O343        C371   1.274       .  A
O343       Mg345   2.308       .  S
O344       Mg376   2.283       .  S
Mg345       O351   2.101       .  S
Mg345       O359   2.216       .  S
Mg345       O347   2.286       .  S
C346        O384   1.275       .  A
C346        O352   1.272       .  A
C346       C1006   1.480       .  S
O347        C354   1.274       .  A
H348        C361   1.081       .  S
C349        O363   1.236       .  S
C349        O364   1.271       .  A
C349        H374   1.080       .  S
O350        C373   1.272       .  A
O351       Mg365   2.147       .  S
O352       Mg382   2.282       .  S
C353        O366   1.274       .  A
C353        O358   1.276       .  A
C353        C910   1.476       .  S
C354        O381   1.274       .  A
C354        C837   1.492       .  S
Mg355       O362   2.157       .  S
Mg355       O363   2.158       .  S
Mg355       O356   2.325       .  S
Mg355       O357   2.293       .  S
Mg355       O384   2.281       .  S
O357        C361   1.269       .  A
O358       Mg365   2.309       .  S
O359        C378   1.268       .  A
O360        C380   1.275       .  A
O360       Mg376   2.311       .  S
O362       Mg376   2.157       .  S
O362        C373   1.236       .  S
O363       Mg382   2.161       .  S
O364       Mg376   2.305       .  S
Mg365       O381   2.293       .  S
O366       Mg382   2.272       .  S
H367        C372   1.081       .  S
O368       Mg376   2.161       .  S
O368        C371   1.240       .  S
H369        C371   1.081       .  S
H370        C373   1.080       .  S
O375       Mg382   2.277       .  S
C378        O383   1.278       .  A
C378       C1445   1.499       .  S
O379        C380   1.273       .  A
C380        C942   1.484       .  S
O385       Mg387   2.134       .  S
O385       Mg393   2.140       .  S
O385        C420   1.239       .  S
C386        O399   1.236       .  S
C386        O423   1.269       .  A
C386        H425   1.081       .  S
Mg387       O416   2.149       .  S
Mg387       O431   2.347       .  S
Mg387       O427   2.270       .  S
Mg387       O398   2.313       .  S
O388       Mg430   2.151       .  S
O388       Mg413   2.140       .  S
O388        C409   1.235       .  S
O389        C420   1.273       .  A
O389       Mg413   2.299       .  S
C390        O392   1.269       .  A
C390        O404   1.277       .  A
C390        C805   1.477       .  S
O391        C419   1.273       .  A
O391       Mg393   2.302       .  S
O392       Mg424   2.256       .  S
Mg393       O399   2.130       .  S
Mg393       O407   2.256       .  S
Mg393       O395   2.277       .  S
C394        O432   1.273       .  A
C394        O400   1.281       .  A
C394        C773   1.494       .  S
O395        C402   1.270       .  A
H396        C409   1.081       .  S
C397        O411   1.238       .  S
C397        O412   1.273       .  A
C397        H422   1.081       .  S
O398        C421   1.273       .  A
O399       Mg413   2.149       .  S
O400       Mg430   2.337       .  S
C401        O414   1.280       .  A
C401        O406   1.278       .  A
C401        C750   1.500       .  S
C402        O429   1.276       .  A
C402        C869   1.482       .  S
Mg403       O410   2.163       .  S
Mg403       O411   2.163       .  S
Mg403       O404   2.323       .  S
Mg403       O405   2.292       .  S
Mg403       O432   2.272       .  S
O405        C409   1.268       .  A
O406       Mg413   2.324       .  S
O407        C426   1.270       .  A
O408        C428   1.277       .  A
O408       Mg424   2.327       .  S
O410       Mg424   2.160       .  S
O410        C421   1.237       .  S
O411       Mg430   2.173       .  S
O412       Mg424   2.309       .  S
Mg413       O429   2.289       .  S
O414       Mg430   2.304       .  S
H415        C420   1.081       .  S
O416       Mg424   2.144       .  S
O416        C419   1.239       .  S
H417        C419   1.081       .  S
H418        C421   1.080       .  S
O423       Mg430   2.290       .  S
C426        O431   1.279       .  A
C426       C1413   1.481       .  S
O427        C428   1.272       .  A
C428        C718   1.492   1_554  S
O433       Mg435   2.133       .  S
O433       Mg441   2.140       .  S
O433        C468   1.237       .  S
C434        O447   1.235       .  S
C434        O471   1.267       .  A
C434        H473   1.081       .  S
Mg435       O464   2.150       .  S
Mg435       O479   2.331       .  S
Mg435       O475   2.266       .  S
Mg435       O446   2.313       .  S
O436       Mg478   2.156       .  S
O436       Mg461   2.138       .  S
O436        C457   1.235       .  S
O437        C468   1.270       .  A
O437       Mg461   2.295       .  S
C438        O440   1.271       .  A
C438        O452   1.277       .  A
C438        C686   1.483       .  S
O439        C467   1.274       .  A
O439       Mg441   2.306       .  S
O440       Mg472   2.266       .  S
Mg441       O447   2.118       .  S
Mg441       O455   2.235       .  S
Mg441       O443   2.273       .  S
C442        O480   1.273       .  A
C442        O448   1.275       .  A
C442        C645   1.486       .  S
O443        C450   1.271       .  A
H444        C457   1.081       .  S
C445        O459   1.237       .  S
C445        O460   1.272       .  A
C445        H470   1.081       .  S
O446        C469   1.273       .  A
O447       Mg461   2.154       .  S
O448       Mg478   2.297       .  S
C449        O462   1.275       .  A
C449        O454   1.278       .  A
C449        C709   1.485       .  S
C450        O477   1.276       .  A
C450        C846   1.483       .  S
Mg451       O458   2.158       .  S
Mg451       O459   2.163       .  S
Mg451       O452   2.329       .  S
Mg451       O453   2.293       .  S
Mg451       O480   2.274       .  S
O453        C457   1.269       .  A
O454       Mg461   2.320       .  S
O455        C474   1.267       .  A
O456        C476   1.277       .  A
O456       Mg472   2.329       .  S
O458       Mg472   2.152       .  S
O458        C469   1.237       .  S
O459       Mg478   2.169       .  S
O460       Mg472   2.310       .  S
Mg461       O477   2.296       .  S
O462       Mg478   2.280       .  S
H463        C468   1.081       .  S
O464       Mg472   2.150       .  S
O464        C467   1.239       .  S
H465        C467   1.081       .  S
H466        C469   1.081       .  S
O471       Mg478   2.282       .  S
C474        O479   1.277       .  A
C474       C1550   1.478       .  S
O475        C476   1.271       .  A
C476        C741   1.483       .  S
O481       Mg483   2.134       .  S
O481       Mg489   2.145       .  S
O481        C516   1.237       .  S
C482        O495   1.235       .  S
C482        O519   1.267       .  A
C482        H521   1.081       .  S
Mg483       O512   2.149       .  S
Mg483       O527   2.318       .  S
Mg483       O523   2.269       .  S
Mg483       O494   2.313       .  S
O484       Mg526   2.157       .  S
O484       Mg509   2.143       .  S
O484        C505   1.236       .  S
O485        C516   1.271       .  A
O485       Mg509   2.298       .  S
C486        O488   1.269       .  A
C486        O500   1.282       .  A
C486        C782   1.498       .  S
O487        C515   1.272       .  A
O487       Mg489   2.299       .  S
O488       Mg520   2.249       .  S
Mg489       O495   2.113       .  S
Mg489       O503   2.227       .  S
Mg489       O491   2.280       .  S
C490        O528   1.278       .  A
C490        O496   1.273       .  A
C490        C677   1.500       .  S
O491        C498   1.273       .  A
H492        C505   1.081       .  S
C493        O507   1.237       .  S
C493        O508   1.272       .  A
C493        H518   1.081       .  S
O494        C517   1.273       .  A
O495       Mg509   2.146       .  S
O496       Mg526   2.299       .  S
C497        O510   1.276       .  A
C497        O502   1.276       .  A
C497        C590   1.486       .  S
C498        O525   1.274       .  A
C498        C974   1.491       .  S
Mg499       O506   2.165       .  S
Mg499       O507   2.162       .  S
Mg499       O500   2.347       .  S
Mg499       O501   2.298       .  S
Mg499       O528   2.301       .  S
O501        C505   1.270       .  A
O502       Mg509   2.311       .  S
O503        C522   1.268       .  A
O504        C524   1.276       .  A
O504       Mg520   2.321       .  S
O506       Mg520   2.151       .  S
O506        C517   1.237       .  S
O507       Mg526   2.164       .  S
O508       Mg520   2.307       .  S
Mg509       O525   2.292       .  S
O510       Mg526   2.288       .  S
H511        C516   1.082       .  S
O512       Mg520   2.137       .  S
O512        C515   1.238       .  S
H513        C515   1.081       .  S
H514        C517   1.082       .  S
O519       Mg526   2.283       .  S
C522        O527   1.275       .  A
C522       C1285   1.487       .  S
O523        C524   1.271       .  A
C524        C613   1.479       .  S
O529       Mg531   2.141       .  S
O529       Mg537   2.139       .  S
O529        C564   1.239       .  S
C530        O543   1.235       .  S
C530        O567   1.267       .  A
C530        H569   1.082       .  S
Mg531       O560   2.154       .  S
Mg531       O575   2.339       .  S
Mg531       O571   2.270       .  S
Mg531       O542   2.310       .  S
O532       Mg574   2.147       .  S
O532       Mg557   2.127       .  S
O532        C553   1.235       .  S
O533        C564   1.273       .  A
O533       Mg557   2.303       .  S
C534        O536   1.272       .  A
C534        O548   1.276       .  A
C534        C654   1.487       .  S
O535        C563   1.274       .  A
O535       Mg537   2.306       .  S
O536       Mg568   2.269       .  S
Mg537       O543   2.105       .  S
Mg537       O551   2.213       .  S
Mg537       O539   2.281       .  S
C538        O576   1.273       .  A
C538        O544   1.276       .  A
C538        C814   1.504       .  S
O539        C546   1.270       .  A
H540        C553   1.081       .  S
C541        O555   1.237       .  S
C541        O556   1.272       .  A
C541        H566   1.081       .  S
O542        C565   1.271       .  A
O543       Mg557   2.142       .  S
O544       Mg574   2.295       .  S
C545        O558   1.274       .  A
C545        O550   1.280   1_554  A
C545        C622   1.495       .  S
C546        O573   1.275       .  A
C546       C1070   1.484       .  S
Mg547       O554   2.161       .  S
Mg547       O555   2.155       .  S
Mg547       O548   2.303       .  S
Mg547       O549   2.287       .  S
Mg547       O576   2.285       .  S
O549        C553   1.268       .  A
O550       Mg557   2.323       .  S
O551        C570   1.266       .  A
O552        C572   1.279       .  A
O552       Mg568   2.336       .  S
O554       Mg568   2.154       .  S
O554        C565   1.235       .  S
O555       Mg574   2.156       .  S
O556       Mg568   2.308       .  S
Mg557       O573   2.289       .  S
O558       Mg574   2.274   1_554  S
H559        C564   1.082       .  S
O560       Mg568   2.148       .  S
O560        C563   1.239       .  S
H561        C563   1.081       .  S
H562        C565   1.082       .  S
O567       Mg574   2.281       .  S
C570        O575   1.277       .  A
C570       C1221   1.484       .  S
O571        C572   1.272       .  A
C572        C581   1.495       .  S
C577        H587   1.083       .  S
C577        C578   1.400       .  A
C577        C582   1.409       .  A
C578        C583   1.489       .  S
C578        C579   1.415       .  A
C579        C580   1.409       .  A
C579        C584   1.519       .  S
C580        H585   1.083       .  S
C580        C581   1.408       .  A
C581        C582   1.425       .  A
C582        C586   1.518       .  S
C583        C588   1.416       .  A
C583        C592   1.402       .  A
C584        F600   1.382       .  S
C584        F601   1.382       .  S
C584        F602   1.384       .  S
C586        F597   1.385       .  S
C586        F598   1.383       .  S
C586        F599   1.383       .  S
C588        C589   1.408       .  A
C588        C593   1.519       .  S
C589        H594   1.083       .  S
C589        C590   1.404       .  A
C590        C591   1.421       .  A
C591        C592   1.410       .  A
C591        C595   1.519       .  S
C592        H596   1.083       .  S
C593        F606   1.385       .  S
C593        F607   1.382       .  S
C593        F608   1.382       .  S
C595        F603   1.381       .  S
C595        F604   1.383       .  S
C595        F605   1.385       .  S
C609        H619   1.083       .  S
C609        C610   1.402       .  A
C609        C614   1.407       .  A
C610        C615   1.487       .  S
C610        C611   1.418       .  A
C611        C612   1.410       .  A
C611        C616   1.519       .  S
C612        H617   1.083       .  S
C612        C613   1.403       .  A
C613        C614   1.416       .  A
C614        C618   1.518       .  S
C615        C620   1.415       .  A
C615        C624   1.400       .  A
C616        F632   1.382       .  S
C616        F633   1.382       .  S
C616        F634   1.385       .  S
C618        F629   1.384       .  S
C618        F630   1.382       .  S
C618        F631   1.384       .  S
C620        C621   1.409       .  A
C620        C625   1.520       .  S
C621        H626   1.083       .  S
C621        C622   1.408       .  A
C622        C623   1.426       .  A
C623        C624   1.409       .  A
C623        C627   1.521       .  S
C624        H628   1.083       .  S
C625        F638   1.385       .  S
C625        F639   1.382       .  S
C625        F640   1.382       .  S
C627        F635   1.383       .  S
C627        F636   1.384       .  S
C627        F637   1.385       .  S
C641        H651   1.083   1_545  S
C641        C642   1.400       .  A
C641        C646   1.405       .  A
C642        C647   1.482   1_545  S
C642        C643   1.413       .  A
C643        C644   1.408       .  A
C643        C648   1.519       .  S
C644        H649   1.083       .  S
C644        C645   1.408       .  A
C645        C646   1.422       .  A
C646        C650   1.520       .  S
C647        C652   1.414       .  A
C647        C656   1.401       .  A
C648        F664   1.382       .  S
C648        F665   1.382       .  S
C648        F666   1.385       .  S
C650        F661   1.385       .  S
C650        F662   1.382       .  S
C650        F663   1.384       .  S
C652        C653   1.404       .  A
C652        C657   1.522   1_565  S
C653        H658   1.083       .  S
C653        C654   1.407       .  A
C654        C655   1.421       .  A
C655        C656   1.409       .  A
C655        C659   1.518       .  S
C656        H660   1.083       .  S
C657        F670   1.385   1_545  S
C657        F671   1.382       .  S
C657        F672   1.381       .  S
C659        F667   1.383       .  S
C659        F668   1.383       .  S
C659        F669   1.385       .  S
C673        H683   1.083       .  S
C673        C674   1.400       .  A
C673        C678   1.410       .  A
C674        C679   1.491   1_565  S
C674        C675   1.417       .  A
C675        C676   1.410       .  A
C675        C680   1.520   1_565  S
C676        H681   1.082       .  S
C676        C677   1.409       .  A
C677        C678   1.428       .  A
C678        C682   1.521       .  S
C679        C684   1.418       .  A
C679        C688   1.402       .  A
C680        F696   1.382       .  S
C680        F697   1.381       .  S
C680        F698   1.385       .  S
C682        F693   1.385       .  S
C682        F694   1.383       .  S
C682        F695   1.384       .  S
C684        C685   1.414       .  A
C684        C689   1.518       .  S
C685        H690   1.083       .  S
C685        C686   1.405       .  A
C686        C687   1.417       .  A
C687        C688   1.406       .  A
C687        C691   1.520       .  S
C688        H692   1.083       .  S
C689        F702   1.384       .  S
C689        F703   1.382       .  S
C689        F704   1.381       .  S
C691        F699   1.382       .  S
C691        F700   1.384       .  S
C691        F701   1.384       .  S
C705        H715   1.083       .  S
C705        C706   1.404       .  A
C705        C710   1.410       .  A
C706        C711   1.493       .  S
C706        C707   1.418       .  A
C707        C708   1.409       .  A
C707        C712   1.519       .  S
C708        H713   1.083       .  S
C708        C709   1.403       .  A
C709        C710   1.419       .  A
C710        C714   1.520       .  S
C711        C716   1.417       .  A
C711        C720   1.402       .  A
C712        F728   1.382       .  S
C712        F729   1.382       .  S
C712        F730   1.384       .  S
C714        F725   1.384       .  S
C714        F726   1.385       .  S
C714        F727   1.382       .  S
C716        C717   1.411       .  A
C716        C721   1.520       .  S
C717        H722   1.083       .  S
C717        C718   1.408       .  A
C718        C719   1.421       .  A
C719        C720   1.409       .  A
C719        C723   1.520       .  S
C720        H724   1.083       .  S
C721        F734   1.385       .  S
C721        F735   1.382       .  S
C721        F736   1.383       .  S
C723        F731   1.382       .  S
C723        F732   1.384       .  S
C723        F733   1.385       .  S
C737        H747   1.083       .  S
C737        C738   1.402       .  A
C737        C742   1.407       .  A
C738        C743   1.491       .  S
C738        C739   1.417       .  A
C739        C740   1.411       .  A
C739        C744   1.518       .  S
C740        H745   1.083       .  S
C740        C741   1.405       .  A
C741        C742   1.417       .  A
C742        C746   1.518       .  S
C743        C748   1.415       .  A
C743        C752   1.402       .  A
C744        F760   1.383       .  S
C744        F761   1.382       .  S
C744        F762   1.385       .  S
C746        F757   1.384       .  S
C746        F758   1.382       .  S
C746        F759   1.384       .  S
C748        C749   1.409       .  A
C748        C753   1.520       .  S
C749        H754   1.083       .  S
C749        C750   1.408       .  A
C750        C751   1.427       .  A
C751        C752   1.413       .  A
C751        C755   1.520       .  S
C752        H756   1.083       .  S
C753        F766   1.384       .  S
C753        F767   1.382       .  S
C753        F768   1.382       .  S
C755        F763   1.383       .  S
C755        F764   1.383       .  S
C755        F765   1.385       .  S
C769        H779   1.083   1_545  S
C769        C770   1.400       .  A
C769        C774   1.409       .  A
C770        C775   1.490   1_545  S
C770        C771   1.413       .  A
C771        C772   1.412       .  A
C771        C776   1.517       .  S
C772        H777   1.083       .  S
C772        C773   1.409       .  A
C773        C774   1.426       .  A
C774        C778   1.521       .  S
C775        C780   1.416       .  A
C775        C784   1.400       .  A
C776        F792   1.383       .  S
C776        F793   1.382       .  S
C776        F794   1.384       .  S
C778        F789   1.385   1_545  S
C778        F790   1.383       .  S
C778        F791   1.383       .  S
C780        C781   1.408       .  A
C780        C785   1.521   1_565  S
C781        H786   1.082       .  S
C781        C782   1.407       .  A
C782        C783   1.429       .  A
C783        C784   1.412       .  A
C783        C787   1.521       .  S
C784        H788   1.083       .  S
C785        F798   1.384   1_545  S
C785        F799   1.382       .  S
C785        F800   1.381       .  S
C787        F795   1.383       .  S
C787        F796   1.383       .  S
C787        F797   1.385       .  S
C801        H811   1.083       .  S
C801        C802   1.405       .  A
C801        C806   1.412       .  A
C802        C807   1.487   1_544  S
C802        C803   1.418       .  A
C803        C804   1.405       .  A
C803        C808   1.521   1_554  S
C804        H809   1.083       .  S
C804        C805   1.401       .  A
C805        C806   1.415       .  A
C806        C810   1.515       .  S
C807        C812   1.411   1_556  A
C807        C816   1.400       .  A
C808        F824   1.382       .  S
C808        F825   1.382   1_546  S
C808        F826   1.384       .  S
C810        F821   1.383       .  S
C810        F822   1.384       .  S
C810        F823   1.383       .  S
C812        C813   1.405   1_554  A
C812        C817   1.520       .  S
C813        H818   1.082   1_556  S
C813        C814   1.414       .  A
C814        C815   1.429       .  A
C815        C816   1.411       .  A
C815        C819   1.520       .  S
C816        H820   1.083   1_565  S
C817        F830   1.385       .  S
C817        F831   1.382       .  S
C817        F832   1.382       .  S
C819        F827   1.383       .  S
C819        F828   1.383       .  S
C819        F829   1.385       .  S
C833        H843   1.083       .  S
C833        C834   1.403       .  A
C833        C838   1.412       .  A
C834        C839   1.485       .  S
C834        C835   1.413       .  A
C835        C836   1.404       .  A
C835        C840   1.521       .  S
C836        H841   1.083       .  S
C836        C837   1.409       .  A
C837        C838   1.422       .  A
C838        C842   1.518       .  S
C839        C844   1.415       .  A
C839        C848   1.402       .  A
C840        F856   1.382       .  S
C840        F857   1.382       .  S
C840        F858   1.385       .  S
C842        F853   1.383       .  S
C842        F854   1.385       .  S
C842        F855   1.383       .  S
C844        C845   1.408       .  A
C844        C849   1.520       .  S
C845        H850   1.083       .  S
C845        C846   1.407       .  A
C846        C847   1.418       .  A
C847        C848   1.407       .  A
C847        C851   1.518       .  S
C848        H852   1.083       .  S
C849        F862   1.385       .  S
C849        F863   1.382       .  S
C849        F864   1.382       .  S
C851        F859   1.383       .  S
C851        F860   1.382       .  S
C851        F861   1.385       .  S
C865        H875   1.083       .  S
C865        C866   1.401       .  A
C865        C870   1.407       .  A
C866        C871   1.483       .  S
C866        C867   1.416       .  A
C867        C868   1.407       .  A
C867        C872   1.520       .  S
C868        H873   1.083       .  S
C868        C869   1.405       .  A
C869        C870   1.420       .  A
C870        C874   1.519       .  S
C871        C876   1.417       .  A
C871        C880   1.396       .  A
C872        F888   1.382       .  S
C872        F889   1.382       .  S
C872        F890   1.384       .  S
C874        F885   1.382       .  S
C874        F886   1.385       .  S
C874        F887   1.384       .  S
C876        C877   1.412       .  A
C876        C881   1.519       .  S
C877        H882   1.083       .  S
C877        C878   1.406       .  A
C878        C879   1.422       .  A
C879        C880   1.402       .  A
C879        C883   1.520       .  S
C880        H884   1.083       .  S
C881        F894   1.385       .  S
C881        F895   1.382       .  S
C881        F896   1.382       .  S
C883        F891   1.382       .  S
C883        F892   1.382       .  S
C883        F893   1.385       .  S
C897        H907   1.083       .  S
C897        C898   1.400       .  A
C897        C902   1.409       .  A
C898        C903   1.486       .  S
C898        C899   1.413       .  A
C899        C900   1.408       .  A
C899        C904   1.521       .  S
C900        H905   1.082       .  S
C900        C901   1.412       .  A
C901        C902   1.426       .  A
C902        C906   1.521       .  S
C903        C908   1.417       .  A
C903        C912   1.403       .  A
C904        F920   1.382       .  S
C904        F921   1.382       .  S
C904        F922   1.385       .  S
C906        F917   1.385       .  S
C906        F918   1.383       .  S
C906        F919   1.383       .  S
C908        C909   1.408       .  A
C908        C913   1.519       .  S
C909        H914   1.083       .  S
C909        C910   1.402       .  A
C910        C911   1.415       .  A
C911        C912   1.407       .  A
C911        C915   1.517       .  S
C912        H916   1.083       .  S
C913        F926   1.385       .  S
C913        F927   1.382       .  S
C913        F928   1.382       .  S
C915        F923   1.382       .  S
C915        F924   1.383       .  S
C915        F925   1.385       .  S
C929        H939   1.083       .  S
C929        C930   1.401       .  A
C929        C934   1.409       .  A
C930        C935   1.490       .  S
C930        C931   1.416       .  A
C931        C932   1.409       .  A
C931        C936   1.520       .  S
C932        H937   1.083       .  S
C932        C933   1.409       .  A
C933        C934   1.426       .  A
C934        C938   1.521       .  S
C935        C940   1.418   1_554  A
C935        C944   1.403   1_554  A
C936        F952   1.382       .  S
C936        F953   1.383       .  S
C936        F954   1.385       .  S
C938        F949   1.383       .  S
C938        F950   1.385       .  S
C938        F951   1.383       .  S
C940        C941   1.408       .  A
C940        C945   1.519   1_556  S
C941        H946   1.083       .  S
C941        C942   1.404       .  A
C942        C943   1.419       .  A
C943        C944   1.408       .  A
C943        C947   1.519       .  S
C944        H948   1.083   1_556  S
C945        F958   1.385   1_554  S
C945        F959   1.381       .  S
C945        F960   1.383       .  S
C947        F955   1.385       .  S
C947        F956   1.383       .  S
C947        F957   1.383       .  S
C961        H971   1.083       .  S
C961        C962   1.403       .  A
C961        C966   1.409       .  A
C962        C967   1.483       .  S
C962        C963   1.412       .  A
C963        C964   1.404       .  A
C963        C968   1.522       .  S
C964        H969   1.083       .  S
C964        C965   1.411       .  A
C965        C966   1.420       .  A
C966        C970   1.517       .  S
C967        C972   1.412       .  A
C967        C976   1.401       .  A
C968        F984   1.381       .  S
C968        F985   1.382       .  S
C968        F986   1.382       .  S
C970        F981   1.384       .  S
C970        F982   1.382       .  S
C970        F983   1.384       .  S
C972        C973   1.406       .  A
C972        C977   1.520       .  S
C973        H978   1.083       .  S
C973        C974   1.410       .  A
C974        C975   1.422       .  A
C975        C976   1.408       .  A
C975        C979   1.519       .  S
C976        H980   1.083       .  S
C977        F990   1.383       .  S
C977        F991   1.382       .  S
C977        F992   1.382       .  S
C979        F987   1.384       .  S
C979        F988   1.383       .  S
C979        F989   1.383       .  S
C993       H1003   1.083       .  S
C993        C994   1.399       .  A
C993        C998   1.403       .  A
C994        C999   1.484   1_455  S
C994        C995   1.416       .  A
C995        C996   1.410       .  A
C995       C1000   1.519   1_455  S
C996       H1001   1.083       .  S
C996        C997   1.406       .  A
C997        C998   1.421       .  A
C998       C1002   1.522       .  S
C999       C1004   1.417       .  A
C999       C1008   1.399       .  A
C1000      F1016   1.382       .  S
C1000      F1017   1.383       .  S
C1000      F1018   1.384       .  S
C1002      F1013   1.383       .  S
C1002      F1014   1.384       .  S
C1002      F1015   1.384       .  S
C1004      C1005   1.409       .  A
C1004      C1009   1.518       .  S
C1005      H1010   1.083       .  S
C1005      C1006   1.404       .  A
C1006      C1007   1.423       .  A
C1007      C1008   1.404       .  A
C1007      C1011   1.523       .  S
C1008      H1012   1.083       .  S
C1009      F1022   1.384       .  S
C1009      F1023   1.382   1_655  S
C1009      F1024   1.382   1_655  S
C1011      F1019   1.385       .  S
C1011      F1020   1.384       .  S
C1011      F1021   1.383       .  S
C1025      H1035   1.083       .  S
C1025      C1026   1.403       .  A
C1025      C1030   1.411       .  A
C1026      C1031   1.489   1_455  S
C1026      C1027   1.416       .  A
C1027      C1028   1.407       .  A
C1027      C1032   1.521   1_455  S
C1028      H1033   1.083       .  S
C1028      C1029   1.406       .  A
C1029      C1030   1.423       .  A
C1030      C1034   1.520       .  S
C1031      C1036   1.415       .  A
C1031      C1040   1.400       .  A
C1032      F1048   1.382       .  S
C1032      F1049   1.381       .  S
C1032      F1050   1.385       .  S
C1034      F1045   1.385       .  S
C1034      F1046   1.382       .  S
C1034      F1047   1.384       .  S
C1036      C1037   1.412       .  A
C1036      C1041   1.518       .  S
C1037      H1042   1.083       .  S
C1037      C1038   1.408       .  A
C1038      C1039   1.424       .  A
C1039      C1040   1.407       .  A
C1039      C1043   1.521       .  S
C1040      H1044   1.083       .  S
C1041      F1054   1.384       .  S
C1041      F1055   1.382       .  S
C1041      F1056   1.382       .  S
C1043      F1051   1.385       .  S
C1043      F1052   1.383       .  S
C1043      F1053   1.384       .  S
C1057      H1067   1.084   1_556  S
C1057      C1058   1.396       .  A
C1057      C1062   1.402       .  A
C1058      C1063   1.482       .  S
C1058      C1059   1.415       .  A
C1059      C1060   1.410       .  A
C1059      C1064   1.518       .  S
C1060      H1065   1.083       .  S
C1060      C1061   1.407       .  A
C1061      C1062   1.426       .  A
C1062      C1066   1.521   1_556  S
C1063      C1068   1.416       .  A
C1063      C1072   1.400       .  A
C1064      F1080   1.382       .  S
C1064      F1081   1.382       .  S
C1064      F1082   1.385       .  S
C1066      F1077   1.385       .  S
C1066      F1078   1.382       .  S
C1066      F1079   1.382       .  S
C1068      C1069   1.407       .  A
C1068      C1073   1.520       .  S
C1069      H1074   1.083       .  S
C1069      C1070   1.405       .  A
C1070      C1071   1.422       .  A
C1071      C1072   1.407       .  A
C1071      C1075   1.519       .  S
C1072      H1076   1.083       .  S
C1073      F1086   1.384       .  S
C1073      F1087   1.382       .  S
C1073      F1088   1.382       .  S
C1075      F1083   1.385       .  S
C1075      F1084   1.383       .  S
C1075      F1085   1.380       .  S
C1089      H1099   1.083       .  S
C1089      C1090   1.402       .  A
C1089      C1094   1.410       .  A
C1090      C1095   1.490   1_655  S
C1090      C1091   1.417       .  A
C1091      C1092   1.408       .  A
C1091      C1096   1.520   1_655  S
C1092      H1097   1.083       .  S
C1092      C1093   1.406       .  A
C1093      C1094   1.421       .  A
C1094      C1098   1.518       .  S
C1095      C1100   1.414       .  A
C1095      C1104   1.401       .  A
C1096      F1112   1.382       .  S
C1096      F1113   1.382       .  S
C1096      F1114   1.385       .  S
C1098      F1109   1.385       .  S
C1098      F1110   1.382       .  S
C1098      F1111   1.384       .  S
C1100      C1101   1.410       .  A
C1100      C1105   1.518       .  S
C1101      H1106   1.083       .  S
C1101      C1102   1.406       .  A
C1102      C1103   1.425       .  A
C1103      C1104   1.409       .  A
C1103      C1107   1.522       .  S
C1104      H1108   1.083       .  S
C1105      F1118   1.384       .  S
C1105      F1119   1.382       .  S
C1105      F1120   1.382       .  S
C1107      F1115   1.383       .  S
C1107      F1116   1.384       .  S
C1107      F1117   1.385       .  S
C1121      H1131   1.083       .  S
C1121      C1122   1.399       .  A
C1121      C1126   1.403       .  A
C1122      C1127   1.481       .  S
C1122      C1123   1.416       .  A
C1123      C1124   1.409       .  A
C1123      C1128   1.520       .  S
C1124      H1129   1.083       .  S
C1124      C1125   1.406       .  A
C1125      C1126   1.419       .  A
C1126      C1130   1.520       .  S
C1127      C1132   1.413       .  A
C1127      C1136   1.401       .  A
C1128      F1144   1.383       .  S
C1128      F1145   1.382       .  S
C1128      F1146   1.384       .  S
C1130      F1141   1.384       .  S
C1130      F1142   1.382       .  S
C1130      F1143   1.384       .  S
C1132      C1133   1.404       .  A
C1132      C1137   1.521       .  S
C1133      H1138   1.083       .  S
C1133      C1134   1.406       .  A
C1134      C1135   1.424       .  A
C1135      C1136   1.408       .  A
C1135      C1139   1.521       .  S
C1136      H1140   1.083       .  S
C1137      F1150   1.384       .  S
C1137      F1151   1.382       .  S
C1137      F1152   1.382       .  S
C1139      F1147   1.383       .  S
C1139      F1148   1.383       .  S
C1139      F1149   1.385       .  S
C1153      H1163   1.083       .  S
C1153      C1154   1.402       .  A
C1153      C1158   1.408       .  A
C1154      C1159   1.484       .  S
C1154      C1155   1.415       .  A
C1155      C1156   1.407       .  A
C1155      C1160   1.520       .  S
C1156      H1161   1.083       .  S
C1156      C1157   1.406       .  A
C1157      C1158   1.419       .  A
C1158      C1162   1.517       .  S
C1159      C1164   1.415       .  A
C1159      C1168   1.400       .  A
C1160      F1176   1.382       .  S
C1160      F1177   1.381       .  S
C1160      F1178   1.385       .  S
C1162      F1173   1.385       .  S
C1162      F1174   1.381       .  S
C1162      F1175   1.383       .  S
C1164      C1165   1.408       .  A
C1164      C1169   1.520       .  S
C1165      H1170   1.083       .  S
C1165      C1166   1.406       .  A
C1166      C1167   1.423       .  A
C1167      C1168   1.407       .  A
C1167      C1171   1.520       .  S
C1168      H1172   1.083       .  S
C1169      F1182   1.384       .  S
C1169      F1183   1.382       .  S
C1169      F1184   1.381       .  S
C1171      F1179   1.383       .  S
C1171      F1180   1.383       .  S
C1171      F1181   1.385       .  S
C1185      H1195   1.083   1_655  S
C1185      C1186   1.400       .  A
C1185      C1190   1.409       .  A
C1186      C1191   1.493   1_655  S
C1186      C1187   1.415       .  A
C1187      C1188   1.413       .  A
C1187      C1192   1.518       .  S
C1188      H1193   1.083       .  S
C1188      C1189   1.408       .  A
C1189      C1190   1.425       .  A
C1190      C1194   1.521       .  S
C1191      C1196   1.418       .  A
C1191      C1200   1.404       .  A
C1192      F1208   1.383       .  S
C1192      F1209   1.382       .  S
C1192      F1210   1.384       .  S
C1194      F1205   1.384       .  S
C1194      F1206   1.385       .  S
C1194      F1207   1.383       .  S
C1196      C1197   1.408       .  A
C1196      C1201   1.520   1_455  S
C1197      H1202   1.083       .  S
C1197      C1198   1.405       .  A
C1198      C1199   1.420       .  A
C1199      C1200   1.412       .  A
C1199      C1203   1.518       .  S
C1200      H1204   1.083       .  S
C1201      F1214   1.385       .  S
C1201      F1215   1.382       .  S
C1201      F1216   1.382       .  S
C1203      F1211   1.385       .  S
C1203      F1212   1.382       .  S
C1203      F1213   1.384       .  S
C1217      H1227   1.083       .  S
C1217      C1218   1.403       .  A
C1217      C1222   1.409       .  A
C1218      C1223   1.482       .  S
C1218      C1219   1.412       .  A
C1219      C1220   1.402       .  A
C1219      C1224   1.521       .  S
C1220      H1225   1.082       .  S
C1220      C1221   1.407       .  A
C1221      C1222   1.418       .  A
C1222      C1226   1.516       .  S
C1223      C1228   1.411       .  A
C1223      C1232   1.401       .  A
C1224      F1240   1.382       .  S
C1224      F1241   1.382       .  S
C1224      F1242   1.385       .  S
C1226      F1237   1.385       .  S
C1226      F1238   1.383       .  S
C1226      F1239   1.380       .  S
C1228      C1229   1.402       .  A
C1228      C1233   1.521       .  S
C1229      H1234   1.082       .  S
C1229      C1230   1.411       .  A
C1230      C1231   1.425       .  A
C1231      C1232   1.411       .  A
C1231      C1235   1.520       .  S
C1232      H1236   1.083       .  S
C1233      F1246   1.384       .  S
C1233      F1247   1.382       .  S
C1233      F1248   1.382       .  S
C1235      F1243   1.383       .  S
C1235      F1244   1.383       .  S
C1235      F1245   1.385       .  S
C1249      H1259   1.083       .  S
C1249      C1250   1.397       .  A
C1249      C1254   1.411       .  A
C1250      C1255   1.491       .  S
C1250      C1251   1.414       .  A
C1251      C1252   1.410       .  A
C1251      C1256   1.519       .  S
C1252      H1257   1.082       .  S
C1252      C1253   1.411       .  A
C1253      C1254   1.434       .  A
C1254      C1258   1.523       .  S
C1255      C1260   1.418       .  A
C1255      C1264   1.398       .  A
C1256      F1272   1.382       .  S
C1256      F1273   1.382       .  S
C1256      F1274   1.385       .  S
C1258      F1269   1.383       .  S
C1258      F1270   1.385       .  S
C1258      F1271   1.384       .  S
C1260      C1261   1.414       .  A
C1260      C1265   1.518       .  S
C1261      H1266   1.083       .  S
C1261      C1262   1.406       .  A
C1262      C1263   1.424       .  A
C1263      C1264   1.406       .  A
C1263      C1267   1.519       .  S
C1264      H1268   1.083       .  S
C1265      F1278   1.384       .  S
C1265      F1279   1.383       .  S
C1265      F1280   1.382       .  S
C1267      F1275   1.385       .  S
C1267      F1276   1.383       .  S
C1267      F1277   1.382       .  S
C1281      H1291   1.083       .  S
C1281      C1282   1.401       .  A
C1281      C1286   1.407       .  A
C1282      C1287   1.478       .  S
C1282      C1283   1.411       .  A
C1283      C1284   1.403       .  A
C1283      C1288   1.521       .  S
C1284      H1289   1.083       .  S
C1284      C1285   1.410       .  A
C1285      C1286   1.422       .  A
C1286      C1290   1.520       .  S
C1287      C1292   1.412       .  A
C1287      C1296   1.401       .  A
C1288      F1304   1.382       .  S
C1288      F1305   1.381       .  S
C1288      F1306   1.383       .  S
C1290      F1301   1.383       .  S
C1290      F1302   1.385       .  S
C1290      F1303   1.384       .  S
C1292      C1293   1.405       .  A
C1292      C1297   1.521       .  S
C1293      H1298   1.083       .  S
C1293      C1294   1.409       .  A
C1294      C1295   1.420       .  A
C1295      C1296   1.406       .  A
C1295      C1299   1.519       .  S
C1296      H1300   1.083       .  S
C1297      F1310   1.385       .  S
C1297      F1311   1.383       .  S
C1297      F1312   1.381       .  S
C1299      F1307   1.384       .  S
C1299      F1308   1.382       .  S
C1299      F1309   1.385       .  S
C1313      H1323   1.082       .  S
C1313      C1314   1.400       .  A
C1313      C1318   1.411       .  A
C1314      C1319   1.489       .  S
C1314      C1315   1.412       .  A
C1315      C1316   1.408       .  A
C1315      C1320   1.520       .  S
C1316      H1321   1.081       .  S
C1316      C1317   1.412       .  A
C1317      C1318   1.428       .  A
C1318      C1322   1.520       .  S
C1319      C1324   1.416       .  A
C1319      C1328   1.404       .  A
C1320      F1336   1.382       .  S
C1320      F1337   1.381       .  S
C1320      F1338   1.385       .  S
C1322      F1333   1.381       .  S
C1322      F1334   1.385       .  S
C1322      F1335   1.383       .  S
C1324      C1325   1.409       .  A
C1324      C1329   1.520       .  S
C1325      H1330   1.083       .  S
C1325      C1326   1.405       .  A
C1326      C1327   1.416       .  A
C1327      C1328   1.410       .  A
C1327      C1331   1.517       .  S
C1328      H1332   1.084       .  S
C1329      F1342   1.385       .  S
C1329      F1343   1.382       .  S
C1329      F1344   1.382       .  S
C1331      F1339   1.382       .  S
C1331      F1340   1.384       .  S
C1331      F1341   1.384       .  S
C1345      H1355   1.083       .  S
C1345      C1346   1.401       .  A
C1345      C1350   1.406   1_556  A
C1346      C1351   1.482       .  S
C1346      C1347   1.416       .  A
C1347      C1348   1.406   1_556  A
C1347      C1352   1.520       .  S
C1348      H1353   1.083       .  S
C1348      C1349   1.404       .  A
C1349      C1350   1.418       .  A
C1350      C1354   1.519       .  S
C1351      C1356   1.415       .  A
C1351      C1360   1.399       .  A
C1352      F1368   1.382       .  S
C1352      F1369   1.382       .  S
C1352      F1370   1.385       .  S
C1354      F1365   1.380       .  S
C1354      F1366   1.385       .  S
C1354      F1367   1.383       .  S
C1356      C1357   1.408       .  A
C1356      C1361   1.520       .  S
C1357      H1362   1.083       .  S
C1357      C1358   1.406       .  A
C1358      C1359   1.423       .  A
C1359      C1360   1.405       .  A
C1359      C1363   1.520       .  S
C1360      H1364   1.083       .  S
C1361      F1374   1.385       .  S
C1361      F1375   1.382       .  S
C1361      F1376   1.382       .  S
C1363      F1371   1.385       .  S
C1363      F1372   1.383       .  S
C1363      F1373   1.382       .  S
C1377      H1387   1.083       .  S
C1377      C1378   1.401       .  A
C1377      C1382   1.409       .  A
C1378      C1383   1.490       .  S
C1378      C1379   1.416       .  A
C1379      C1380   1.411       .  A
C1379      C1384   1.519       .  S
C1380      H1385   1.083       .  S
C1380      C1381   1.407       .  A
C1381      C1382   1.423       .  A
C1382      C1386   1.520       .  S
C1383      C1388   1.416       .  A
C1383      C1392   1.401       .  A
C1384      F1400   1.383       .  S
C1384      F1401   1.382       .  S
C1384      F1402   1.384       .  S
C1386      F1397   1.384       .  S
C1386      F1398   1.383       .  S
C1386      F1399   1.383       .  S
C1388      C1389   1.410       .  A
C1388      C1393   1.519       .  S
C1389      H1394   1.083       .  S
C1389      C1390   1.405       .  A
C1390      C1391   1.422       .  A
C1391      C1392   1.410       .  A
C1391      C1395   1.520       .  S
C1392      H1396   1.083       .  S
C1393      F1406   1.384       .  S
C1393      F1407   1.382       .  S
C1393      F1408   1.382       .  S
C1395      F1403   1.383       .  S
C1395      F1404   1.384       .  S
C1395      F1405   1.384       .  S
C1409      H1419   1.083       .  S
C1409      C1410   1.405       .  A
C1409      C1414   1.412       .  A
C1410      C1415   1.494       .  S
C1410      C1411   1.418       .  A
C1411      C1412   1.410       .  A
C1411      C1416   1.519       .  S
C1412      H1417   1.083       .  S
C1412      C1413   1.402       .  A
C1413      C1414   1.415       .  A
C1414      C1418   1.517       .  S
C1415      C1420   1.415       .  A
C1415      C1424   1.405       .  A
C1416      F1432   1.382       .  S
C1416      F1433   1.382       .  S
C1416      F1434   1.384       .  S
C1418      F1429   1.384       .  S
C1418      F1430   1.383       .  S
C1418      F1431   1.383       .  S
C1420      C1421   1.409       .  A
C1420      C1425   1.519   1_554  S
C1421      H1426   1.083   1_554  S
C1421      C1422   1.406       .  A
C1422      C1423   1.420       .  A
C1423      C1424   1.413       .  A
C1423      C1427   1.518       .  S
C1424      H1428   1.083       .  S
C1425      F1438   1.384       .  S
C1425      F1439   1.382   1_556  S
C1425      F1440   1.382       .  S
C1427      F1435   1.385       .  S
C1427      F1436   1.382       .  S
C1427      F1437   1.384       .  S
C1441      H1451   1.083       .  S
C1441      C1442   1.402       .  A
C1441      C1446   1.412       .  A
C1442      C1447   1.482       .  S
C1442      C1443   1.410       .  A
C1443      C1444   1.402       .  A
C1443      C1448   1.523       .  S
C1444      H1449   1.082       .  S
C1444      C1445   1.413       .  A
C1445      C1446   1.424       .  A
C1446      C1450   1.519       .  S
C1447      C1452   1.413       .  A
C1447      C1456   1.402       .  A
C1448      F1464   1.382       .  S
C1448      F1465   1.382       .  S
C1448      F1466   1.385       .  S
C1450      F1461   1.383       .  S
C1450      F1462   1.385       .  S
C1450      F1463   1.383       .  S
C1452      C1453   1.405       .  A
C1452      C1457   1.519       .  S
C1453      H1458   1.083       .  S
C1453      C1454   1.406       .  A
C1454      C1455   1.418       .  A
C1455      C1456   1.407       .  A
C1455      C1459   1.517       .  S
C1456      H1460   1.083       .  S
C1457      F1470   1.385       .  S
C1457      F1471   1.382       .  S
C1457      F1472   1.382       .  S
C1459      F1467   1.383       .  S
C1459      F1468   1.379       .  S
C1459      F1469   1.385       .  S
C1473      H1483   1.083       .  S
C1473      C1474   1.405       .  A
C1473      C1478   1.411       .  A
C1474      C1479   1.483       .  S
C1474      C1475   1.416       .  A
C1475      C1476   1.402       .  A
C1475      C1480   1.522       .  S
C1476      H1481   1.084       .  S
C1476      C1477   1.400       .  A
C1477      C1478   1.413       .  A
C1478      C1482   1.515       .  S
C1479      C1484   1.413       .  A
C1479      C1488   1.401       .  A
C1480      F1496   1.382       .  S
C1480      F1497   1.382       .  S
C1480      F1498   1.384       .  S
C1482      F1493   1.385       .  S
C1482      F1494   1.383       .  S
C1482      F1495   1.383       .  S
C1484      C1485   1.405       .  A
C1484      C1489   1.520       .  S
C1485      H1490   1.082       .  S
C1485      C1486   1.408       .  A
C1486      C1487   1.422       .  A
C1487      C1488   1.408       .  A
C1487      C1491   1.519       .  S
C1488      H1492   1.083       .  S
C1489      F1502   1.385       .  S
C1489      F1503   1.382       .  S
C1489      F1504   1.382       .  S
C1491      F1499   1.384       .  S
C1491      F1500   1.382       .  S
C1491      F1501   1.385       .  S
C1505      H1515   1.083       .  S
C1505      C1506   1.403       .  A
C1505      C1510   1.410       .  A
C1506      C1511   1.488       .  S
C1506      C1507   1.413       .  A
C1507      C1508   1.407       .  A
C1507      C1512   1.519       .  S
C1508      H1513   1.083       .  S
C1508      C1509   1.408       .  A
C1509      C1510   1.423       .  A
C1510      C1514   1.521   1_554  S
C1511      C1516   1.418       .  A
C1511      C1520   1.405       .  A
C1512      F1528   1.382       .  S
C1512      F1529   1.382       .  S
C1512      F1530   1.385       .  S
C1514      F1525   1.385       .  S
C1514      F1526   1.383       .  S
C1514      F1527   1.384       .  S
C1516      C1517   1.406       .  A
C1516      C1521   1.521       .  S
C1517      H1522   1.083       .  S
C1517      C1518   1.401       .  A
C1518      C1519   1.415       .  A
C1519      C1520   1.412       .  A
C1519      C1523   1.515       .  S
C1520      H1524   1.083       .  S
C1521      F1534   1.384       .  S
C1521      F1535   1.382       .  S
C1521      F1536   1.382       .  S
C1523      F1531   1.385       .  S
C1523      F1532   1.382       .  S
C1523      F1533   1.383       .  S
C1537      H1547   1.083       .  S
C1537      C1538   1.402       .  A
C1537      C1542   1.411       .  A
C1538      C1543   1.483       .  S
C1538      C1539   1.410       .  A
C1539      C1540   1.404       .  A
C1539      C1544   1.522       .  S
C1540      H1545   1.082       .  S
C1540      C1541   1.415       .  A
C1541      C1542   1.427       .  A
C1542      C1546   1.520       .  S
C1543      C1548   1.416       .  A
C1543      C1552   1.402       .  A
C1544      F1560   1.382       .  S
C1544      F1561   1.381       .  S
C1544      F1562   1.385       .  S
C1546      F1557   1.385       .  S
C1546      F1558   1.384       .  S
C1546      F1559   1.383       .  S
C1548      C1549   1.407       .  A
C1548      C1553   1.521       .  S
C1549      H1554   1.083       .  S
C1549      C1550   1.405       .  A
C1550      C1551   1.416       .  A
C1551      C1552   1.406       .  A
C1551      C1555   1.518       .  S
C1552      H1556   1.083       .  S
C1553      F1566   1.385       .  S
C1553      F1567   1.382       .  S
C1553      F1568   1.381       .  S
C1555      F1563   1.383       .  S
C1555      F1564   1.381       .  S
C1555      F1565   1.384       .  S
C1569      H1579   1.083       .  S
C1569      C1570   1.401       .  A
C1569      C1574   1.412       .  A
C1570      C1575   1.486       .  S
C1570      C1571   1.412       .  A
C1571      C1572   1.405       .  A
C1571      C1576   1.522       .  S
C1572      H1577   1.082       .  S
C1572      C1573   1.412       .  A
C1573      C1574   1.427       .  A
C1574      C1578   1.520       .  S
C1575      C1580   1.415       .  A
C1575      C1584   1.401       .  A
C1576      F1592   1.382       .  S
C1576      F1593   1.382       .  S
C1576      F1594   1.384       .  S
C1578      F1589   1.383       .  S
C1578      F1590   1.385       .  S
C1578      F1591   1.383       .  S
C1580      C1581   1.407       .  A
C1580      C1585   1.519       .  S
C1581      H1586   1.083       .  S
C1581      C1582   1.405       .  A
C1582      C1583   1.422       .  A
C1583      C1584   1.408       .  A
C1583      C1587   1.520       .  S
C1584      H1588   1.083       .  S
C1585      F1598   1.385       .  S
C1585      F1599   1.382       .  S
C1585      F1600   1.382       .  S
C1587      F1595   1.385       .  S
C1587      F1596   1.384       .  S
C1587      F1597   1.383       .  S
C1601      H1611   1.083       .  S
C1601      C1602   1.400       .  A
C1601      C1606   1.408       .  A
C1602      C1607   1.491       .  S
C1602      C1603   1.416       .  A
C1603      C1604   1.412       .  A
C1603      C1608   1.519       .  S
C1604      H1609   1.083       .  S
C1604      C1605   1.408       .  A
C1605      C1606   1.423       .  A
C1606      C1610   1.518       .  S
C1607      C1612   1.419       .  A
C1607      C1616   1.404       .  A
C1608      F1624   1.382       .  S
C1608      F1625   1.382       .  S
C1608      F1626   1.384       .  S
C1610      F1621   1.385       .  S
C1610      F1622   1.382       .  S
C1610      F1623   1.383       .  S
C1612      C1613   1.409       .  A
C1612      C1617   1.519       .  S
C1613      H1618   1.083       .  S
C1613      C1614   1.401       .  A
C1614      C1615   1.414       .  A
C1615      C1616   1.410       .  A
C1615      C1619   1.516       .  S
C1616      H1620   1.083       .  S
C1617      F1630   1.384       .  S
C1617      F1631   1.382       .  S
C1617      F1632   1.382       .  S
C1619      F1627   1.382       .  S
C1619      F1628   1.383       .  S
C1619      F1629   1.385       .  S
C1633      H1643   1.083       .  S
C1633      C1634   1.400       .  A
C1633      C1638   1.410       .  A
C1634      C1639   1.491       .  S
C1634      C1635   1.416       .  A
C1635      C1636   1.409       .  A
C1635      C1640   1.520       .  S
C1636      H1641   1.083       .  S
C1636      C1637   1.408       .  A
C1637      C1638   1.426       .  A
C1638      C1642   1.521       .  S
C1639      C1644   1.419       .  A
C1639      C1648   1.404       .  A
C1640      F1656   1.381       .  S
C1640      F1657   1.383       .  S
C1640      F1658   1.385       .  S
C1642      F1653   1.385       .  S
C1642      F1654   1.383       .  S
C1642      F1655   1.383       .  S
C1644      C1645   1.410       .  A
C1644      C1649   1.519       .  S
C1645      H1650   1.083       .  S
C1645      C1646   1.401       .  A
C1646      C1647   1.414       .  A
C1647      C1648   1.408       .  A
C1647      C1651   1.517       .  S
C1648      H1652   1.083       .  S
C1649      F1662   1.385       .  S
C1649      F1663   1.382       .  S
C1649      F1664   1.382       .  S
C1651      F1659   1.383       .  S
C1651      F1660   1.383       .  S
C1651      F1661   1.385       .  S
C1665      H1675   1.083       .  S
C1665      C1666   1.402       .  A
C1665      C1670   1.409       .  A
C1666      C1671   1.489       .  S
C1666      C1667   1.417       .  A
C1667      C1668   1.408       .  A
C1667      C1672   1.519       .  S
C1668      H1673   1.083       .  S
C1668      C1669   1.405       .  A
C1669      C1670   1.421       .  A
C1670      C1674   1.518       .  S
C1671      C1676   1.414       .  A
C1671      C1680   1.399       .  A
C1672      F1688   1.382       .  S
C1672      F1689   1.382       .  S
C1672      F1690   1.384       .  S
C1674      F1685   1.385       .  S
C1674      F1686   1.383       .  S
C1674      F1687   1.384       .  S
C1676      C1677   1.411       .  A
C1676      C1681   1.517       .  S
C1677      H1682   1.083       .  S
C1677      C1678   1.408       .  A
C1678      C1679   1.427       .  A
C1679      C1680   1.408       .  A
C1679      C1683   1.522       .  S
C1680      H1684   1.083       .  S
C1681      F1694   1.384       .  S
C1681      F1695   1.383       .  S
C1681      F1696   1.382       .  S
C1683      F1691   1.383       .  S
C1683      F1692   1.384       .  S
C1683      F1693   1.385       .  S
C1697      H1707   1.083       .  S
C1697      C1698   1.399       .  A
C1697      C1702   1.409       .  A
C1698      C1703   1.486       .  S
C1698      C1699   1.410       .  A
C1699      C1700   1.409       .  A
C1699      C1704   1.519       .  S
C1700      H1705   1.082       .  S
C1700      C1701   1.414       .  A
C1701      C1702   1.429       .  A
C1702      C1706   1.521       .  S
C1703      C1708   1.418       .  A
C1703      C1712   1.405       .  A
C1704      F1720   1.383       .  S
C1704      F1721   1.382       .  S
C1704      F1722   1.385       .  S
C1706      F1717   1.385       .  S
C1706      F1718   1.384       .  S
C1706      F1719   1.383       .  S
C1708      C1709   1.405       .  A
C1708      C1713   1.522       .  S
C1709      H1714   1.084       .  S
C1709      C1710   1.400       .  A
C1710      C1711   1.413       .  A
C1711      C1712   1.412       .  A
C1711      C1715   1.515       .  S
C1712      H1716   1.083       .  S
C1713      F1726   1.385       .  S
C1713      F1727   1.382       .  S
C1713      F1728   1.382       .  S
C1715      F1723   1.384       .  S
C1715      F1724   1.382       .  S
C1715      F1725   1.384       .  S
