geometry optimzed in LAMMPS
_audit_creation_date              2020-12-01 
_audit_creation_method            'lammps2cif' 
_symmetry_space_group_name_H-M    'P1' 
_symmetry_Int_Tables_number       1 
_symmetry_cell_setting            triclinic 
loop_ 
_symmetry_equiv_pos_as_xyz 
  x,y,z 
_cell_length_a                    30.69578892 
_cell_length_b                    31.062250141009006 
_cell_length_c                    29.736534426801537 
_cell_angle_alpha                 85.25587519341408 
_cell_angle_beta                  89.79715026604539 
_cell_angle_gamma                 89.56106920858358 
loop_ 
_atom_site_label 
_atom_site_type_symbol 
_atom_site_fract_x 
_atom_site_fract_y 
_atom_site_fract_z 
_atom_site_charge 
C1          C  0.38909871  0.14147572  0.40334786     0.80700
N2          N  0.41733814  0.14543893  0.36751322    -0.77600
C3          C  0.41569159  0.11751433  0.33423901     0.83200
N4          N  0.38509329  0.08560388  0.33716558    -0.77500
C5          C  0.35677378  0.08115859  0.37291133     0.83300
N6          N  0.35924296  0.10901237  0.40581084    -0.79200
C7          C  0.36498369  0.35832207  0.08990367     0.80700
N8          N  0.39324604  0.35262653  0.12509933    -0.77600
C9          C  0.39104551  0.37825733  0.15987392     0.83200
N10         N  0.35985218  0.40982410  0.15937996    -0.77500
C11         C  0.33135669  0.41591310  0.12418841     0.83300
N12         N  0.33425403  0.39021954  0.08929906    -0.79200
C13         C  0.16065863  0.43867822  0.34454508     0.80700
N14         N  0.13001507  0.44213515  0.31075344    -0.77600
C15         C  0.09634754  0.41314264  0.31104554     0.83200
N16         N  0.09380451  0.38102957  0.34538741    -0.77500
C17         C  0.12382054  0.37734642  0.37924076     0.83900
N18         N  0.15695274  0.40629901  0.37832248    -0.79200
C19         C  0.20077104  0.08425718  0.14450001     0.80700
N20         N  0.19482913  0.11224468  0.10658910    -0.77600
C21         C  0.16396505  0.14429172  0.10619838     0.83200
N22         N  0.13959398  0.14828530  0.14359839    -0.77500
C23         C  0.14442605  0.12139504  0.18144166     0.83300
N24         N  0.17482580  0.08869290  0.18178755    -0.79200
O25         O  0.07309070  0.13763766  0.20614255    -0.71300
O26         O  0.44233995  0.13455604  0.25744574    -0.71500
O27         O  0.50373717  0.19311920  0.23148975    -0.71300
O28         O  0.47379924  0.08625546  0.19234182    -0.71300
O29         O  0.06399388  0.06531912  0.30657691    -0.71300
O30         O  0.08076652  0.18557717  0.29812537    -0.71300
O31         O  0.48804925  0.10568089  0.30686414    -0.71300
O32         O  0.11862163  0.11766908  0.25967085    -0.71400
V33         V  0.48958153  0.13905982  0.21382322     1.35200
V34         V  0.07123188  0.12540625  0.30169818     1.35200
C35         C  0.11122254  0.12547101  0.21770723     0.78000
C36         C  0.44983017  0.11926079  0.29778958     0.78000
C37         C  0.05363389  0.20912916  0.27580213     0.77900
C38         C  0.04695328  0.04889031  0.27360400     0.77900
O39         O  0.05243802  0.27856156  0.48286181    -0.71300
O40         O  0.15536553  0.23756493  0.43075075    -0.71500
O41         O  0.14057572  0.16626789  0.02959615    -0.71300
O42         O  0.10208391  0.30631367  0.41071060    -0.71300
O43         O  0.14041493  0.34440340  0.45381329    -0.71300
O44         O  0.15601900  0.21599454  0.07408063    -0.71300
O45         O  0.18653878  0.26585303  0.00218973    -0.71300
O46         O  0.07793874  0.25252890  0.06121279    -0.71400
V47         V  0.10422688  0.25930697  0.45720405     1.35200
V48         V  0.13237648  0.25828618  0.03103483     1.35200
C49         C  0.05211940  0.22394998  0.04988878     0.78000
C50         C  0.19515163  0.24552270  0.96808722     0.78000
C51         C  0.15525827  0.17641177  0.06725000     0.77900
C52         C  0.12163541  0.34136259  0.41620414     0.77900
O53         O  0.27415450  0.99374911  0.05960263    -0.71300
O54         O  0.33796380  0.01390336  0.16390700    -0.71500
O55         O  0.30264348  0.48516098  0.09768433    -0.71300
O56         O  0.26759499  0.05187431  0.11934049    -0.71300
O57         O  0.22654914  0.01054167  0.16362785    -0.71300
O58         O  0.26586144  0.44822718  0.14998692    -0.71300
O59         O  0.26077651  0.51646820  0.19774129    -0.71300
O60         O  0.19031433  0.47525805  0.10789994    -0.71400
V61         V  0.30515104  0.00292240  0.11219112     1.35200
V62         V  0.22685221  0.49635549  0.15196639     1.35200
C63         C  0.19467556  0.49124695  0.06789709     0.78000
C64         C  0.29231387  0.54142009  0.18812229     0.78000
C65         C  0.29834202  0.45095854  0.12355578     0.77900
C66         C  0.23328209  0.04757526  0.14324113     0.77900
O67         O  0.02244933  0.41534894  0.28417064    -0.71300
O68         O  0.41837237  0.35921905  0.23484114    -0.71500
O69         O  0.48778399  0.30831384  0.26277380    -0.71300
O70         O  0.43872159  0.41105171  0.29871706    -0.71300
O71         O  0.02128029  0.44246955  0.16393001    -0.71300
O72         O  0.03577404  0.33164799  0.22376228    -0.71300
O73         O  0.46296472  0.39012736  0.18550326    -0.71300
O74         O  0.07255066  0.40706223  0.23390365    -0.71400
V75         V  0.46375926  0.36034346  0.27915079     1.35200
V76         V  0.02781366  0.38714357  0.19502834     1.35200
C77         C  0.06266723  0.41395678  0.27428501     0.78000
C78         C  0.42547316  0.37525175  0.19485947     0.78000
C79         C  0.52129732  0.30924025  0.23801726     0.77900
C80         C  0.44834769  0.44613581  0.27713558     0.77900
O81         O  0.23100848  0.45966988  0.36988044    -0.71300
O82         O  0.32963783  0.01101999  0.39985472    -0.71500
O83         O  0.24241394  0.50408223  0.44003817    -0.71300
O84         O  0.30350759  0.49776130  0.33133262    -0.71300
O85         O  0.28782336  0.98601090  0.29973321    -0.71300
O86         O  0.21596353  0.01746098  0.39503263    -0.71300
O87         O  0.28924699  0.04985933  0.35210536    -0.71300
O88         O  0.19281932  0.51029386  0.33366311    -0.71400
V89         V  0.27203689  0.50232500  0.38515007     1.35200
V90         V  0.25259591  0.00068150  0.34799424     1.35200
C91         C  0.19669334  0.47077025  0.34801953     0.78000
C92         C  0.32355090  0.04620791  0.37571351     0.78000
C93         C  0.20741389  0.52546578  0.44130977     0.77900
C94         C  0.29755892  0.52615665  0.29927058     0.77900
O95         O  0.36880611  0.16480683  0.47553022    -0.71300
O96         O  0.35666022  0.28800322  0.06730467    -0.71500
O97         O  0.30314461  0.26124086  0.00418427    -0.71300
O98         O  0.41582591  0.23005181  0.04604568    -0.71300
O99         O  0.44387888  0.24093820  0.50289598    -0.71300
O100        O  0.34068552  0.27025646  0.44006162    -0.71300
O101        O  0.37665171  0.33690068  0.01490507    -0.71300
O102        O  0.40324356  0.21144651  0.43035679    -0.71400
V103        V  0.35953457  0.24633101  0.02439075     1.35200
V104        V  0.39178739  0.25421013  0.47234547     1.35200
C105        C  0.38795278  0.17367963  0.43808611     0.78000
C106        C  0.36548411  0.32690259  0.05554831     0.78000
C107        C  0.30608696  0.25029390  0.45024063     0.77900
C108        C  0.44370054  0.21543238  0.53814655     0.77900
C109        C  0.17913429  0.51808211  0.48059770    -0.15900
C110        C  0.16234050  0.48425793  0.03362747    -0.31100
H111        H  0.18855945  0.04314827  0.47664454     0.13100
H112        H  0.15912933  0.45077784  0.02607043     0.13700
C113        C  0.31798452  0.55588088  0.22479539    -0.15900
C114        C  0.32464442  0.52586301  0.25880729    -0.31100
H115        H  0.35992116  0.02537289  0.25157149     0.13100
H116        H  0.33552163  0.49390113  0.25095471     0.13700
C117        C  0.00988716  0.21728187  0.07210502    -0.15900
C118        C  0.49131063  0.24596190  0.04878203    -0.31100
H119        H  0.99405907  0.24614723  0.08292315     0.13100
H120        H  0.49898034  0.18047343  0.56756559     0.13700
C121        C  0.23519165  0.25390021  0.94325892    -0.15900
C122        C  0.25571541  0.29070329  0.94866252    -0.31100
H123        H  0.25326339  0.22581373  0.93358591     0.13100
H124        H  0.26014035  0.29606074  0.41786488     0.13700
C125        C  0.42997949  0.48654263  0.28915466    -0.15900
C126        C  0.04892503  0.00310345  0.27089423    -0.31100
H127        H  0.01146809  0.52685707  0.13923800     0.13100
H128        H  0.45499729  0.99511764  0.20104793     0.13700
C129        C  0.54517731  0.26962563  0.23301515    -0.15900
C130        C  0.05391055  0.25544690  0.27618741    -0.31100
H131        H  0.54993831  0.26043106  0.19881788     0.13100
H132        H  0.08398850  0.27275812  0.26844168     0.13700
C133        C  0.37987321  0.17442895  0.91461174     0.80700
N134        N  0.41288435  0.17177733  0.88420411    -0.77600
C135        C  0.41487057  0.13821259  0.85751478     0.83200
N136        N  0.38350224  0.10725738  0.86135975    -0.77500
C137        C  0.34998592  0.10970482  0.89131857     0.83300
N138        N  0.34831059  0.14347796  0.91773053    -0.79200
C139        C  0.35906255  0.32156629  0.58449081     0.80700
N140        N  0.39185605  0.32424938  0.61542238    -0.77600
C141        C  0.38983279  0.35401044  0.64685679     0.83200
N142        N  0.35521259  0.38202898  0.64575967    -0.77500
C143        C  0.32259058  0.38029822  0.61478259     0.83300
N144        N  0.32457099  0.34968182  0.58445070    -0.79200
C145        C  0.12279868  0.39698591  0.88318344     0.80700
N146        N  0.09017296  0.39992595  0.85182778    -0.77600
C147        C  0.05830280  0.36918538  0.85249653     0.83200
N148        N  0.05972501  0.33475772  0.88460796    -0.77500
C149        C  0.09218741  0.33160750  0.91613149     0.83900
N150        N  0.12315632  0.36290508  0.91496616    -0.79200
C151        C  0.15343250  0.11453874  0.61237959     0.80700
N152        N  0.15422752  0.14808153  0.57969026    -0.77600
C153        C  0.12112902  0.17787740  0.57604267     0.83200
N154        N  0.08671140  0.17394726  0.60575853    -0.77500
C155        C  0.08572219  0.14097867  0.63935073     0.83300
N156        N  0.11920109  0.11153821  0.64199298    -0.79200
O157        O  0.01057829  0.15015430  0.66640678    -0.71300
O158        O  0.44590537  0.14882366  0.78353920    -0.71500
O159        O  0.51148553  0.19920626  0.75420911    -0.71300
O160        O  0.47250673  0.09115900  0.72764813    -0.71300
O161        O  0.99986474  0.05299033  0.72551912    -0.71300
O162        O  0.02231453  0.15374626  0.78407425    -0.71300
O163        O  0.48753061  0.11954100  0.83676846    -0.71300
O164        O  0.05667472  0.11612725  0.71190027    -0.71400
V165        V  0.49334628  0.14446119  0.74216902     1.35200
V166        V  0.01033144  0.10364802  0.75413192     1.35200
C167        C  0.04934293  0.13623475  0.67382219     0.78000
C168        C  0.45087138  0.13539511  0.82460428     0.78000
C169        C  0.00071664  0.18738091  0.77211738     0.77900
C170        C  0.97350281  0.05391212  0.69282041     0.77900
O171        O  0.06204458  0.20266831  0.01692638    -0.71300
O172        O  0.16935225  0.21720259  0.95684511    -0.71500
O173        O  0.10428318  0.21098639  0.50195379    -0.71300
O174        O  0.09196199  0.25534283  0.94458070    -0.71300
O175        O  0.11044005  0.30320429  0.99004749    -0.71300
O176        O  0.14227796  0.24912242  0.54534964    -0.71300
O177        O  0.19245344  0.27680551  0.47408933    -0.71300
O178        O  0.09022491  0.31710790  0.52637393    -0.71400
V179        V  0.11606743  0.21123569  0.98788886     1.35200
V180        V  0.14063014  0.29619859  0.49887924     1.35200
C181        C  0.05428012  0.30207864  0.51549259     0.78000
C182        C  0.19156931  0.25051947  0.44402176     0.78000
C183        C  0.12263789  0.21413830  0.53966185     0.77900
C184        C  0.09641708  0.29495337  0.95185322     0.77900
O185        O  0.24304356  0.01966680  0.54639891    -0.71300
O186        O  0.29361443  0.06081092  0.64876714    -0.71500
O187        O  0.29563446  0.45320420  0.60521980    -0.71300
O188        O  0.22511272  0.08558906  0.59530271    -0.71300
O189        O  0.18165830  0.04407537  0.63668585    -0.71300
O190        O  0.24756042  0.40360502  0.62243616    -0.71300
O191        O  0.23192272  0.44888228  0.69284793    -0.71300
O192        O  0.18072987  0.44793670  0.57715359    -0.71400
V193        V  0.26735613  0.03884958  0.59856029     1.35200
V194        V  0.20699796  0.44891076  0.63499603     1.35200
C195        C  0.19754353  0.47118890  0.54491279     0.78000
C196        C  0.26040124  0.47684167  0.69974736     0.78000
C197        C  0.28687048  0.41346222  0.61312799     0.77900
C198        C  0.18837021  0.08023275  0.61491359     0.77900
O199        O  0.98331886  0.37497168  0.82776928    -0.71300
O200        O  0.41762033  0.37394705  0.71795857    -0.71500
O201        O  0.46521056  0.33345275  0.78757569    -0.71300
O202        O  0.46125806  0.44487623  0.72763171    -0.71300
O203        O  0.98958608  0.42176140  0.71276799    -0.71300
O204        O  0.98616222  0.30440333  0.75269463    -0.71300
O205        O  0.46569011  0.35089712  0.67181864    -0.71300
O206        O  0.03266871  0.37006663  0.77593704    -0.71400
V207        V  0.46417151  0.38900084  0.75657639     1.35200
V208        V  0.98666216  0.36320471  0.73350911     1.35200
C209        C  0.02335531  0.37203868  0.81731862     0.78000
C210        C  0.42588903  0.35875409  0.68050107     0.78000
C211        C  0.49492471  0.30778427  0.77740634     0.77900
C212        C  0.48059839  0.45296045  0.69034120     0.77900
O213        O  0.19241273  0.42281820  0.90661081    -0.71300
O214        O  0.32318663  0.03707931  0.89791382    -0.71500
O215        O  0.21322132  0.48363737  0.95999718    -0.71300
O216        O  0.26202768  0.44480279  0.85522808    -0.71300
O217        O  0.26089598  0.04941689  0.80957609    -0.71300
O218        O  0.20829460  0.04304780  0.92474513    -0.71300
O219        O  0.27544954  0.08829387  0.88359288    -0.71300
O220        O  0.15401204  0.46724542  0.86237981    -0.71400
V221        V  0.23707451  0.46592586  0.90680776     1.35200
V222        V  0.23521145  0.04526588  0.86716987     1.35200
C223        C  0.15785926  0.43035030  0.88374187     0.78000
C224        C  0.31455160  0.07714138  0.89236874     0.78000
C225        C  0.18058397  0.50860569  0.95840387     0.77900
C226        C  0.25224086  0.46372875  0.81774943     0.77900
O227        O  0.36085843  0.20238022  0.98380893    -0.71300
O228        O  0.34626911  0.25192442  0.55699516    -0.71500
O229        O  0.30594598  0.22232661  0.48367619    -0.71300
O230        O  0.40967314  0.19439522  0.54865693    -0.71300
O231        O  0.44116546  0.28232753  0.00037071    -0.71300
O232        O  0.33093452  0.30306814  0.94915277    -0.71300
O233        O  0.38192716  0.29845642  0.51279550    -0.71300
O234        O  0.39499016  0.24651987  0.93559361    -0.71400
V235        V  0.35830498  0.20919857  0.51530346     1.35200
V236        V  0.38557579  0.29133333  0.97584814     1.35200
C237        C  0.37880146  0.20936030  0.94570448     0.78000
C238        C  0.36205033  0.28950269  0.54982717     0.78000
C239        C  0.29838229  0.28548524  0.96820593     0.77900
C240        C  0.44739261  0.25313415  0.03173890     0.77900
C241        C  0.15796552  0.51571202  0.00023223    -0.15900
C242        C  0.17767391  0.47760675  0.50052088    -0.31100
H243        H  0.20175095  0.04111331  0.01804934     0.13100
H244        H  0.18024803  0.45030139  0.47999123     0.13700
C245        C  0.27802093  0.48045846  0.74412915    -0.15900
C246        C  0.27008368  0.44964988  0.77660165    -0.31100
H247        H  0.29127692  0.08981120  0.73898776     0.13100
H248        H  0.26324815  0.41673951  0.76899051     0.13700
C249        C  0.01535920  0.30840015  0.54168502    -0.15900
C250        C  0.48282088  0.21184414  0.56568341    -0.31100
H251        H  0.99773782  0.33837167  0.53274681     0.13100
H252        H  0.50416144  0.21321773  0.04915764     0.13700
C253        C  0.23274327  0.23426245  0.42795193    -0.15900
C254        C  0.26609862  0.26171615  0.42583703    -0.31100
H255        H  0.23846912  0.19968471  0.43376943     0.13100
H256        H  0.23746595  0.31907135  0.95716599     0.13700
C257        C  0.47274052  0.49396576  0.66420435    -0.15900
C258        C  0.96954976  0.01654284  0.66713152    -0.31100
H259        H  0.99758252  0.50632582  0.70234233     0.13100
H260        H  0.44235942  0.00580779  0.74319867     0.13700
C261        C  0.50342485  0.26799212  0.80542573    -0.15900
C262        C  0.00108658  0.22526517  0.79717832    -0.31100
H263        H  0.47502182  0.25063118  0.81905382     0.13100
H264        H  0.03146411  0.24297910  0.79724760     0.13700
C265        C  0.37778272  0.67453406  0.42595581     0.80700
N266        N  0.41196815  0.67085857  0.39706840    -0.77600
C267        C  0.41185055  0.64012436  0.36703969     0.83200
N268        N  0.37789523  0.61229191  0.36679076    -0.77500
C269        C  0.34353867  0.61509585  0.39546733     0.83300
N270        N  0.34318942  0.64689684  0.42469956    -0.79200
C271        C  0.39871081  0.81955345  0.08746290     0.80700
N272        N  0.43122946  0.81867444  0.11929969    -0.77600
C273        C  0.43178298  0.84842992  0.15102237     0.83200
N274        N  0.39989859  0.87932976  0.14997480    -0.77500
C275        C  0.36763414  0.88136250  0.11851966     0.83300
N276        N  0.36704718  0.85112853  0.08747156    -0.79200
C277        C  0.18749337  0.88216415  0.36585388     0.80700
N278        N  0.15115494  0.88730491  0.33935556    -0.77600
C279        C  0.11859517  0.85751908  0.34285701     0.83200
N280        N  0.12315723  0.82181035  0.37213774    -0.77500
C281        C  0.15919898  0.81568796  0.39852085     0.83900
N282        N  0.19087264  0.84654491  0.39612806    -0.79200
C283        C  0.15790830  0.61135177  0.12747428     0.80700
N284        N  0.15944558  0.64332391  0.09343464    -0.77600
C285        C  0.12652239  0.67264335  0.08754218     0.83200
N286        N  0.09132870  0.66971498  0.11617031    -0.77500
C287        C  0.08936754  0.63741561  0.15040462     0.83300
N288        N  0.12282929  0.60846483  0.15555224    -0.79200
O289        O  0.01681587  0.65455827  0.17640177    -0.71300
O290        O  0.44361541  0.64962284  0.29348977    -0.71500
O291        O  0.51769924  0.68669832  0.26189695    -0.71300
O292        O  0.45564206  0.58878065  0.23762608    -0.71300
O293        O  0.98375716  0.55646284  0.22774721    -0.71300
O294        O  0.03177057  0.64327480  0.29240059    -0.71300
O295        O  0.48268638  0.61625464  0.34653096    -0.71300
O296        O  0.05404253  0.60617869  0.21713119    -0.71400
V297        V  0.48790344  0.63678228  0.25113002     1.35200
V298        V  0.00673301  0.60072717  0.25922449     1.35200
C299        C  0.05174846  0.63278311  0.18244799     0.78000
C300        C  0.44797419  0.63621003  0.33464889     0.78000
C301        C  0.01916285  0.68152481  0.28335960     0.77900
C302        C  0.95891794  0.56542533  0.19450539     0.77900
O303        O  0.08222050  0.70193768  0.45255921    -0.71300
O304        O  0.19882468  0.68704046  0.48657077    -0.71500
O305        O  0.12053510  0.70108045  0.01010597    -0.71300
O306        O  0.15462042  0.74017393  0.42386036    -0.71300
O307        O  0.15685079  0.78609484  0.47502734    -0.71300
O308        O  0.14150214  0.74509480  0.05873538    -0.71300
O309        O  0.19739906  0.77893425  0.99426694    -0.71300
O310        O  0.08391138  0.80440803  0.03072143    -0.71400
V311        V  0.14030327  0.69592955  0.47066697     1.35200
V312        V  0.14047781  0.79088291  0.01167559     1.35200
C313        C  0.05361668  0.78211294  0.01673428     0.78000
C314        C  0.20382725  0.75734222  0.96066915     0.78000
C315        C  0.12966786  0.70760677  0.05057640     0.77900
C316        C  0.15918486  0.77891830  0.43386025     0.77900
O317        O  0.22738800  0.51452588  0.05753593    -0.71300
O318        O  0.30005586  0.55351101  0.14744769    -0.71500
O319        O  0.34415616  0.95547818  0.10313437    -0.71300
O320        O  0.22556144  0.58103867  0.10621239    -0.71300
O321        O  0.18674271  0.54303845  0.15600075    -0.71300
O322        O  0.29802942  0.91214671  0.13852473    -0.71300
O323        O  0.29676117  0.96723432  0.20191518    -0.71300
O324        O  0.22751945  0.95464194  0.09996885    -0.71400
V325        V  0.26336230  0.53259542  0.10314899     1.35200
V326        V  0.26307057  0.96199938  0.15034275     1.35200
C327        C  0.23860276  0.97347353  0.06271322     0.78000
C328        C  0.32970425  0.99140147  0.20011132     0.78000
C329        C  0.33459918  0.91739645  0.11870673     0.77900
C330        C  0.19185659  0.57750093  0.13077300     0.77900
O331        O  0.04133865  0.86789602  0.32919492    -0.71300
O332        O  0.46022945  0.86505083  0.22308676    -0.71500
O333        O  0.50846494  0.82360757  0.29107114    -0.71300
O334        O  0.50449081  0.93529476  0.23502371    -0.71300
O335        O  0.03914446  0.91205501  0.21329837    -0.71300
O336        O  0.02715841  0.79557454  0.26048673    -0.71300
O337        O  0.50739169  0.84265324  0.17561355    -0.71300
O338        O  0.08313380  0.85808206  0.27178100    -0.71400
V339        V  0.50751755  0.87918318  0.26137816     1.35200
V340        V  0.03186190  0.85369461  0.23657254     1.35200
C341        C  0.07945142  0.86217808  0.31349963     0.78000
C342        C  0.46788857  0.85065513  0.18502174     0.78000
C343        C  0.53700189  0.79723158  0.28008317     0.77900
C344        C  0.52435897  0.94543290  0.19869928     0.77900
O345        O  0.25502311  0.91354992  0.38858629    -0.71300
O346        O  0.31431330  0.54344633  0.40148993    -0.71500
O347        O  0.25641731  0.97738566  0.44182470    -0.71300
O348        O  0.32871491  0.94665264  0.34673722    -0.71300
O349        O  0.26663385  0.55308821  0.30197272    -0.71300
O350        O  0.19758651  0.55179947  0.40823966    -0.71300
O351        O  0.27062299  0.59504577  0.37607250    -0.71300
O352        O  0.21449468  0.95291809  0.34148506    -0.71400
V353        V  0.29159683  0.96293670  0.39341166     1.35200
V354        V  0.23270071  0.55170274  0.35545242     1.35200
C355        C  0.22077335  0.91729412  0.36472698     0.78000
C356        C  0.30730874  0.58358087  0.39276862     0.78000
C357        C  0.22297936  0.00080521  0.43445437     0.77900
C358        C  0.32208622  0.96382946  0.30753099     0.77900
O359        O  0.40090015  0.70579459  0.49317473    -0.71300
O360        O  0.37552809  0.74979952  0.06629745    -0.71500
O361        O  0.31356127  0.74057155  0.00471226    -0.71300
O362        O  0.41357676  0.67571682  0.04072028    -0.71300
O363        O  0.40625100  0.81361641  0.45983066    -0.71300
O364        O  0.30751233  0.76402686  0.51930884    -0.71300
O365        O  0.41029999  0.78943893  0.01471919    -0.71300
O366        O  0.35601865  0.74348667  0.44912404    -0.71400
V367        V  0.36378008  0.70918525  0.02232921     1.35200
V368        V  0.35712060  0.78781776  0.49015290     1.35200
C369        C  0.37811083  0.70920227  0.45751220     0.78000
C370        C  0.39546096  0.78467300  0.05493348     0.78000
C371        C  0.31182361  0.73441448  0.55075725     0.77900
C372        C  0.44338339  0.80475723  0.47634477     0.77900
C373        C  0.19425984  0.00922134  0.47190633    -0.15900
C374        C  0.21082116  0.97365577  0.02347656    -0.31100
H375        H  0.17501971  0.54541442  0.50087064     0.13100
H376        H  0.21247740  0.94453634  0.00558269     0.13700
C377        C  0.35654271  0.99314552  0.24030499    -0.15900
C378        C  0.35351881  0.95942286  0.27129123    -0.31100
H379        H  0.31098921  0.58888278  0.23230216     0.13100
H380        H  0.35540409  0.92699967  0.26015850     0.13700
C381        C  0.01149381  0.78078300  0.03743691    -0.15900
C382        C  0.48846363  0.65899219  0.02941187    -0.31100
H383        H  0.99451557  0.81127345  0.04081553     0.13100
H384        H  0.49233298  0.81654976  0.42460338     0.13700
C385        C  0.24687570  0.75456207  0.94212243    -0.15900
C386        C  0.27529255  0.78456997  0.95166530    -0.31100
H387        H  0.25768953  0.72334682  0.93192386     0.13100
H388        H  0.25344185  0.73180516  0.59036441     0.13700
C389        C  0.52008857  0.98954606  0.17905336    -0.15900
C390        C  0.94847383  0.53139773  0.16595130    -0.31100
H391        H  0.03685680  0.00329132  0.20016274     0.13100
H392        H  0.42483371  0.51275579  0.22216486     0.13700
C393        C  0.54162250  0.75634048  0.30762573    -0.15900
C394        C  0.03309497  0.71608276  0.30913379    -0.31100
H395        H  0.51399915  0.74723465  0.32935968     0.13100
H396        H  0.06585627  0.72775964  0.30181907     0.13700
C397        C  0.35526204  0.63751357  0.90786093     0.80700
N398        N  0.38101042  0.63620817  0.87055414    -0.77600
C399        C  0.37450404  0.60669449  0.83981854     0.83200
N400        N  0.34138160  0.57768532  0.84663851    -0.77500
C401        C  0.31477629  0.57803827  0.88375102     0.83300
N402        N  0.32203011  0.60809367  0.91437576    -0.79200
C403        C  0.36983747  0.85969561  0.60141906     0.80700
N404        N  0.39486989  0.85378296  0.63877297    -0.77600
C405        C  0.39202229  0.88045766  0.67235775     0.83200
N406        N  0.36295654  0.91455164  0.66820121    -0.77500
C407        C  0.33763027  0.92163799  0.63000509     0.83300
N408        N  0.34135417  0.89378055  0.59688875    -0.79200
C409        C  0.16468703  0.93114697  0.85760842     0.80700
N410        N  0.13554784  0.93267094  0.82254493    -0.77600
C411        C  0.10417010  0.90150273  0.82170642     0.83200
N412        N  0.10180451  0.86982685  0.85595317    -0.77500
C413        C  0.12985093  0.86841874  0.89105238     0.83900
N414        N  0.16135013  0.89896161  0.89156584    -0.79200
C415        C  0.13715482  0.56647437  0.63445418     0.80700
N416        N  0.13587469  0.59494348  0.59727294    -0.77600
C417        C  0.10775662  0.62885765  0.59391250     0.83200
N418        N  0.08047670  0.63503743  0.62912769    -0.77500
C419        C  0.08026798  0.60694692  0.66709503     0.83300
N420        N  0.10898082  0.57232616  0.66970659    -0.79200
O421        O  0.01452141  0.63854852  0.69575017    -0.71300
O422        O  0.39808118  0.62543393  0.76289633    -0.71500
O423        O  0.46044070  0.68347379  0.75073651    -0.71300
O424        O  0.42798557  0.58892645  0.68797779    -0.71300
O425        O  0.98116079  0.55902417  0.77784819    -0.71300
O426        O  0.03831861  0.66090119  0.80356011    -0.71300
O427        O  0.44295459  0.58824858  0.80733695    -0.71300
O428        O  0.05272441  0.59896036  0.74473243    -0.71400
V429        V  0.44536803  0.63554465  0.72039647     1.35200
V430        V  0.00900787  0.61018642  0.78960662     1.35200
C431        C  0.04804470  0.61493151  0.70425607     0.78000
C432        C  0.40568963  0.60547897  0.80117594     0.78000
C433        C  0.02450128  0.69637386  0.78520863     0.77900
C434        C  0.95373641  0.55955734  0.74633930     0.77900
O435        O  0.06043913  0.75836190  0.98513257    -0.71300
O436        O  0.17269050  0.73842358  0.94384433    -0.71500
O437        O  0.12572466  0.65134147  0.51679952    -0.71300
O438        O  0.11176049  0.79649588  0.92011167    -0.71300
O439        O  0.14044574  0.83841158  0.96679684    -0.71300
O440        O  0.10782958  0.70142128  0.56040328    -0.71300
O441        O  0.18791211  0.72814354  0.54136806    -0.71300
O442        O  0.07708640  0.75738510  0.49249916    -0.71400
V443        V  0.11678111  0.74944645  0.96567204     1.35200
V444        V  0.13261888  0.74248704  0.51653770     1.35200
C445        C  0.06115208  0.73417631  0.46371283     0.78000
C446        C  0.21179020  0.70162072  0.52230754     0.78000
C447        C  0.11242232  0.66170466  0.55502826     0.77900
C448        C  0.12686885  0.83314188  0.92754772     0.77900
O449        O  0.23226761  0.49103825  0.55148314    -0.71300
O450        O  0.27149488  0.50372656  0.66814275    -0.71500
O451        O  0.31092404  0.99294290  0.60099793    -0.71300
O452        O  0.20775752  0.54016379  0.61560484    -0.71300
O453        O  0.16478162  0.49255795  0.64932824    -0.71300
O454        O  0.26744467  0.95330839  0.64428972    -0.71300
O455        O  0.24898079  0.02068608  0.69074384    -0.71300
O456        O  0.20009533  0.97720547  0.58764857    -0.71400
V457        V  0.25089718  0.49599334  0.61040952     1.35200
V458        V  0.22539781  0.99962147  0.63897293     1.35200
C459        C  0.21235226  0.99287121  0.54922368     0.78000
C460        C  0.28025820  0.04696603  0.68709117     0.78000
C461        C  0.30424622  0.95767619  0.62510116     0.77900
C462        C  0.17136682  0.53156474  0.63463875     0.77900
O463        O  0.03126749  0.90681841  0.79565984    -0.71300
O464        O  0.41720978  0.88401669  0.74938125    -0.71500
O465        O  0.44799008  0.81946803  0.81011616    -0.71300
O466        O  0.47739533  0.93492591  0.77815332    -0.71300
O467        O  0.03339332  0.92281778  0.67583161    -0.71300
O468        O  0.03376306  0.81522694  0.74459947    -0.71300
O469        O  0.46126625  0.85656572  0.70196693    -0.71300
O470        O  0.07954071  0.88708016  0.74773517    -0.71400
V471        V  0.46343342  0.87736057  0.79311648     1.35200
V472        V  0.03242160  0.86937520  0.71102392     1.35200
C473        C  0.07085196  0.90076206  0.78583765     0.78000
C474        C  0.42440545  0.87343072  0.70977535     0.78000
C475        C  0.47137966  0.79020756  0.79538444     0.77900
C476        C  0.50089879  0.94461599  0.74398877     0.77900
O477        O  0.23579216  0.95314057  0.87892166    -0.71300
O478        O  0.28339780  0.50795463  0.90767487    -0.71500
O479        O  0.25838157  0.99644497  0.94768103    -0.71300
O480        O  0.30087183  0.99305858  0.82984517    -0.71300
O481        O  0.22516415  0.49469773  0.81575426    -0.71300
O482        O  0.16877674  0.52670205  0.92088034    -0.71300
O483        O  0.24060462  0.55513869  0.87230449    -0.71300
O484        O  0.19333821  0.00396121  0.84930093    -0.71400
V485        V  0.27865297  0.99588887  0.88838498     1.35200
V486        V  0.19798290  0.51022929  0.86860226     1.35200
C487        C  0.19952461  0.96413282  0.86094397     0.78000
C488        C  0.27780805  0.54609299  0.88927717     0.78000
C489        C  0.22428883  0.01753203  0.95557920     0.77900
C490        C  0.29060816  0.02298177  0.80073040     0.77900
O491        O  0.34917059  0.66718894  0.98070026    -0.71300
O492        O  0.39397066  0.79244446  0.57716081    -0.71500
O493        O  0.34916815  0.72167413  0.56288598    -0.71300
O494        O  0.44671856  0.77677693  0.50935661    -0.71300
O495        O  0.45040754  0.71590754  0.99098544    -0.71300
O496        O  0.35060033  0.77648665  0.95153935    -0.71300
O497        O  0.35526378  0.83332628  0.52950610    -0.71300
O498        O  0.38906198  0.70299153  0.93041886    -0.71400
V499        V  0.39705568  0.74996303  0.53459433     1.35200
V500        V  0.39962441  0.74550863  0.97315956     1.35200
C501        C  0.36462891  0.67064783  0.94098765     0.78000
C502        C  0.37317894  0.82745865  0.56773291     0.78000
C503        C  0.31507023  0.76764766  0.97062227     0.77900
C504        C  0.44885370  0.68406507  0.02003239     0.77900
C505        C  0.20489284  0.01202021  0.00027208    -0.15900
C506        C  0.19338702  0.97997123  0.50767650    -0.31100
H507        H  0.15698067  0.54919803  0.00835321     0.13100
H508        H  0.19622383  0.94578345  0.50268772     0.13700
C509        C  0.30111485  0.05890369  0.72738951    -0.15900
C510        C  0.31119467  0.02569177  0.75675476    -0.31100
H511        H  0.28661249  0.51276945  0.75254523     0.13100
H512        H  0.32228575  0.99531530  0.74468141     0.13700
C513        C  0.01819486  0.74217752  0.44499300    -0.15900
C514        C  0.48306221  0.82482461  0.45815522    -0.31100
H515        H  0.00303622  0.71538646  0.42964473     0.13100
H516        H  0.49839003  0.65606396  0.06459523     0.13700
C517        C  0.25464707  0.68915947  0.53948326    -0.15900
C518        C  0.27344976  0.71308554  0.56877882    -0.31100
H519        H  0.27497461  0.67104515  0.51743628     0.13100
H520        H  0.26464259  0.81598130  0.96133489     0.13700
C521        C  0.50786816  0.98908273  0.72997788    -0.15900
C522        C  0.93770026  0.51934029  0.73353000    -0.31100
H523        H  0.03669174  0.01072809  0.65505352     0.13100
H524        H  0.40700485  0.49798725  0.68247811     0.13700
C525        C  0.46539106  0.74512985  0.81081491    -0.15900
C526        C  0.04030941  0.73762051  0.79733143    -0.31100
H527        H  0.43202441  0.73372207  0.81383554     0.13100
H528        H  0.07183641  0.74773245  0.78371768     0.13700
C529        C  0.90466727  0.16823392  0.41630913     0.80700
N530        N  0.94153695  0.16526627  0.39050765    -0.77600
C531        C  0.94638340  0.13248116  0.36263451     0.83200
N532        N  0.91354078  0.10321638  0.36031932    -0.77500
C533        C  0.87656650  0.10547686  0.38574700     0.83300
N534        N  0.87252320  0.13807101  0.41369418    -0.79200
C535        C  0.87613109  0.32333403  0.07548044     0.80700
N536        N  0.91089583  0.33020821  0.10288724    -0.77600
C537        C  0.90913999  0.36219255  0.13183686     0.83200
N538        N  0.87318353  0.38786720  0.13198043    -0.77500
C539        C  0.83871905  0.38241298  0.10465926     0.83300
N540        N  0.83990175  0.34956113  0.07666202    -0.79200
C541        C  0.64661574  0.40234926  0.37537557     0.80700
N542        N  0.61276225  0.40656339  0.34558169    -0.77600
C543        C  0.57865115  0.37842708  0.34933198     0.83200
N544        N  0.57880438  0.34562574  0.38262208    -0.77500
C545        C  0.61194811  0.34112981  0.41273514     0.83900
N546        N  0.64567758  0.36970043  0.40910244    -0.79200
C547        C  0.68161145  0.11069613  0.12587031     0.80700
N548        N  0.68119485  0.14141088  0.09010293    -0.77600
C549        C  0.64592339  0.16827575  0.08282218     0.83200
N550        N  0.61096885  0.16407309  0.11136392    -0.77500
C551        C  0.61097927  0.13377623  0.14719322     0.83300
N552        N  0.64640894  0.10734034  0.15408736    -0.79200
O553        O  0.53577502  0.14491319  0.16946352    -0.71300
O554        O  0.97875152  0.12653865  0.28991842    -0.71500
O555        O  0.02535900  0.19200520  0.25247764    -0.71300
O556        O  0.02785971  0.07275490  0.24349248    -0.71300
O557        O  0.51723083  0.05464165  0.24278100    -0.71300
O558        O  0.55008972  0.16334807  0.28001858    -0.71300
O559        O  0.02429989  0.13237122  0.34468364    -0.71300
O560        O  0.57902724  0.11152761  0.21858313    -0.71400
V561        V  0.02695917  0.13223776  0.24896252     1.35200
V562        V  0.53246356  0.10921312  0.26127581     1.35200
C563        C  0.57354660  0.12993917  0.17946172     0.78000
C564        C  0.98490424  0.13043372  0.33147453     0.78000
C565        C  0.53336059  0.19680598  0.25998901     0.77900
C566        C  0.49195156  0.05258660  0.20950064     0.77900
O567        O  0.55380031  0.22558436  0.51163749    -0.71300
O568        O  0.66273581  0.21085685  0.45832673    -0.71500
O569        O  0.62743208  0.19580032  0.00728549    -0.71300
O570        O  0.59784858  0.26763457  0.44164216    -0.71300
O571        O  0.62842914  0.31007958  0.48653012    -0.71300
O572        O  0.65756475  0.24034347  0.05019110    -0.71300
O573        O  0.70025219  0.27734612  0.97667860    -0.71300
O574        O  0.59264881  0.29694995  0.03388803    -0.71400
V575        V  0.60880652  0.21989813  0.48578142     1.35200
V576        V  0.64608728  0.28619689  0.00457822     1.35200
C577        C  0.55979594  0.27572833  0.02371327     0.78000
C578        C  0.70260340  0.25307340  0.94464340     0.78000
C579        C  0.64478215  0.20246663  0.04473207     0.77900
C580        C  0.61213283  0.30487003  0.44849041     0.77900
O581        O  0.75420209  0.01023090  0.06233151    -0.71300
O582        O  0.82653651  0.05002763  0.15156038    -0.71500
O583        O  0.80955305  0.45391966  0.09485499    -0.71300
O584        O  0.75163502  0.07945953  0.10773420    -0.71300
O585        O  0.71163501  0.04394759  0.15822454    -0.71300
O586        O  0.76587041  0.40465598  0.12441646    -0.71300
O587        O  0.76159898  0.45067574  0.19612527    -0.71300
O588        O  0.69364740  0.44875284  0.09040955    -0.71400
V589        V  0.78917971  0.02942032  0.10789726     1.35200
V590        V  0.72853888  0.45039116  0.14276615     1.35200
C591        C  0.70344133  0.47379514  0.05642522     0.78000
C592        C  0.79268589  0.47698066  0.19798983     0.78000
C593        C  0.80223002  0.41434562  0.10589091     0.77900
C594        C  0.71701177  0.07731792  0.13135017     0.77900
O595        O  0.50758478  0.36068147  0.32452305    -0.71300
O596        O  0.93497301  0.38525124  0.20121042    -0.71500
O597        O  0.98132891  0.34352527  0.26828417    -0.71300
O598        O  0.97452367  0.45754187  0.21552460    -0.71300
O599        O  0.47636373  0.44649134  0.24586065    -0.71300
O600        O  0.53340914  0.34455163  0.21833898    -0.71300
O601        O  0.98494031  0.36572122  0.15505006    -0.71300
O602        O  0.54678248  0.40196356  0.27803725    -0.71400
V603        V  0.97944560  0.40046183  0.24141316     1.35200
V604        V  0.50396489  0.39516818  0.23276537     1.35200
C605        C  0.54266147  0.38117357  0.31620906     0.78000
C606        C  0.94475847  0.37035711  0.16406277     0.78000
C607        C  0.01098214  0.31892219  0.25598133     0.77900
C608        C  0.99338900  0.46793282  0.17838379     0.77900
O609        O  0.71637356  0.42860138  0.39775269    -0.71300
O610        O  0.84768692  0.03318775  0.39580723    -0.71500
O611        O  0.72725827  0.49328939  0.44808536    -0.71300
O612        O  0.79086444  0.45098570  0.35247922    -0.71300
O613        O  0.79726193  0.03109866  0.29673222    -0.71300
O614        O  0.73227402  0.04488807  0.40143439    -0.71300
O615        O  0.80499377  0.08208215  0.36305417    -0.71300
O616        O  0.68034957  0.46948391  0.34791130    -0.71400
V617        V  0.75867591  0.47366499  0.39954253     1.35200
V618        V  0.76554428  0.03648108  0.34970585     1.35200
C619        C  0.68287315  0.43447645  0.37303476     0.78000
C620        C  0.84123056  0.07251118  0.38218011     0.78000
C621        C  0.69382951  0.51667881  0.44035353     0.77900
C622        C  0.78439821  0.46709684  0.31284137     0.77900
O623        O  0.88314726  0.19450050  0.48662556    -0.71300
O624        O  0.85612104  0.25310771  0.05308258    -0.71500
O625        O  0.81169551  0.22763249  0.98216801    -0.71300
O626        O  0.90933222  0.18427832  0.04801134    -0.71300
O627        O  0.94097255  0.29072564  0.49948830    -0.71300
O628        O  0.83101930  0.28697848  0.44672814    -0.71300
O629        O  0.90133531  0.29018352  0.00930851    -0.71300
O630        O  0.90544343  0.24339352  0.43556637    -0.71400
V631        V  0.86105235  0.20683047  0.01396020     1.35200
V632        V  0.88579808  0.28726466  0.47423625     1.35200
C633        C  0.89846450  0.20362341  0.44747430     0.78000
C634        C  0.87784441  0.28747584  0.04465134     0.78000
C635        C  0.80286610  0.26184649  0.46429456     0.77900
C636        C  0.95096262  0.26702071  0.53439577     0.77900
C637        C  0.66293949  0.52221191  0.47679662    -0.15900
C638        C  0.67528043  0.47961683  0.01705970    -0.31100
H639        H  0.71564371  0.05568344  0.49249195     0.13100
H640        H  0.67204860  0.45129919  0.99817554     0.13700
C641        C  0.81583880  0.48074414  0.24015653    -0.15900
C642        C  0.80805864  0.45175832  0.27481945    -0.31100
H643        H  0.85268573  0.07313614  0.23913725     0.13100
H644        H  0.80217738  0.41828304  0.26868563     0.13700
C645        C  0.51825434  0.27980918  0.04648957    -0.15900
C646        C  0.98544676  0.18413265  0.06133022    -0.31100
H647        H  0.50551143  0.31238836  0.04825494     0.13100
H648        H  0.01103865  0.24270716  0.56527564     0.13700
C649        C  0.74420091  0.24546218  0.92308326    -0.15900
C650        C  0.77654764  0.27327653  0.92729620    -0.31100
H651        H  0.75164375  0.21205381  0.91737792     0.13100
H652        H  0.74383012  0.29122294  0.43604264     0.13700
C653        C  0.98338330  0.50926442  0.15328341    -0.15900
C654        C  0.48492397  0.01176488  0.19086962    -0.31100
H655        H  0.43277634  0.49285059  0.32444674     0.13100
H656        H  0.05448435  0.98337205  0.30236930     0.13700
C657        C  0.01549822  0.27565802  0.27699471    -0.15900
C658        C  0.54665806  0.23994545  0.26835457    -0.31100
H659        H  0.98602460  0.25824311  0.28723840     0.13100
H660        H  0.54348174  0.24922008  0.30268780     0.13700
C661        C  0.87787411  0.13083409  0.90429451     0.80700
N662        N  0.90282546  0.13265410  0.86594775    -0.77600
C663        C  0.89748771  0.10368766  0.83410195     0.83200
N664        N  0.86627533  0.07240940  0.84118442    -0.77500
C665        C  0.84083628  0.07002622  0.87949721     0.83300
N666        N  0.84696811  0.09940617  0.91059269    -0.79200
C667        C  0.84944445  0.35349101  0.58666956     0.80700
N668        N  0.87499976  0.34772539  0.62404489    -0.77600
C669        C  0.87106666  0.37337492  0.65869470     0.83200
N670        N  0.84040475  0.40584529  0.65567619    -0.77500
C671        C  0.81445601  0.41288011  0.61813347     0.83300
N672        N  0.81927609  0.38642561  0.58357029    -0.79200
C673        C  0.64500034  0.43044459  0.85650768     0.80700
N674        N  0.61383045  0.43267756  0.82328192    -0.77600
C675        C  0.58323314  0.40059819  0.82241277     0.83200
N676        N  0.58422890  0.36669262  0.85499051    -0.77500
C677        C  0.61482845  0.36457444  0.88823679     0.83900
N678        N  0.64479994  0.39645546  0.88839626    -0.79200
C679        C  0.66852201  0.08169525  0.64161836     0.80700
N680        N  0.66663421  0.11188353  0.60561925    -0.77600
C681        C  0.63632640  0.14398802  0.60403398     0.83200
N682        N  0.60826614  0.14659532  0.63880388    -0.77500
C683        C  0.60926865  0.11747338  0.67525618     0.83300
N684        N  0.63940815  0.08432294  0.67670388    -0.79200
O685        O  0.53921210  0.14038732  0.69913351    -0.71300
O686        O  0.91938463  0.12567374  0.75622357    -0.71500
O687        O  0.97652457  0.18803793  0.73800014    -0.71300
O688        O  0.95145347  0.08744254  0.68273198    -0.71300
O689        O  0.51451599  0.06131839  0.78058576    -0.71300
O690        O  0.55323678  0.17093182  0.80805666    -0.71300
O691        O  0.96635303  0.08955342  0.79894732    -0.71300
O692        O  0.58086038  0.11022626  0.75177595    -0.71400
V693        V  0.96537462  0.13712486  0.71163039     1.35200
V694        V  0.53336475  0.11610893  0.79331596     1.35200
C695        C  0.57526800  0.12237086  0.71046719     0.78000
C696        C  0.92825969  0.10522950  0.79413877     0.78000
C697        C  0.53643575  0.20376200  0.78689704     0.77900
C698        C  0.48762506  0.05809133  0.74904099     0.77900
O699        O  0.56257291  0.25140332  0.99190391    -0.71300
O700        O  0.66913806  0.23339944  0.93362715    -0.71500
O701        O  0.61961379  0.17134576  0.52843853    -0.71300
O702        O  0.60365397  0.29036803  0.91841973    -0.71300
O703        O  0.63605468  0.33369469  0.96098897    -0.71300
O704        O  0.64443807  0.21603226  0.57459482    -0.71300
O705        O  0.69089437  0.25294591  0.50545187    -0.71300
O706        O  0.57985273  0.27150815  0.55576141    -0.71400
V707        V  0.61628971  0.24367594  0.96355820     1.35200
V708        V  0.63533248  0.26189105  0.52962185     1.35200
C709        C  0.54866281  0.24858707  0.54423470     0.78000
C710        C  0.69515619  0.22951969  0.47287445     0.78000
C711        C  0.63459478  0.17801282  0.56690741     0.77900
C712        C  0.61738870  0.32802685  0.92406009     0.77900
O713        O  0.76022020  0.00760661  0.55558546    -0.71300
O714        O  0.80255555  0.01414793  0.67272012    -0.71500
O715        O  0.78815172  0.48608226  0.59679940    -0.71300
O716        O  0.73893289  0.05507545  0.62224594    -0.71300
O717        O  0.69426208  0.00737094  0.65302378    -0.71300
O718        O  0.74368277  0.44280403  0.63467218    -0.71300
O719        O  0.73405709  0.50489026  0.69060993    -0.71300
O720        O  0.67258456  0.47594793  0.58749227    -0.71400
V721        V  0.78031580  0.00983096  0.61452346     1.35200
V722        V  0.70417837  0.49085541  0.63872938     1.35200
C723        C  0.68430851  0.49312425  0.54949479     0.78000
C724        C  0.76385224  0.53291609  0.68709401     0.78000
C725        C  0.78058748  0.44859920  0.61584878     0.77900
C726        C  0.70210103  0.04658196  0.64023029     0.77900
O727        O  0.50885440  0.40474630  0.79714503    -0.71300
O728        O  0.89405738  0.37699098  0.73652165    -0.71500
O729        O  0.93163680  0.31580983  0.79721473    -0.71300
O730        O  0.94552021  0.43493037  0.76756674    -0.71300
O731        O  0.50687129  0.42552279  0.67679417    -0.71300
O732        O  0.51708098  0.31669421  0.74205505    -0.71300
O733        O  0.94235150  0.35637245  0.68920011    -0.71300
O734        O  0.55733791  0.39054161  0.74708231    -0.71400
V735        V  0.93944289  0.37544268  0.78142308     1.35200
V736        V  0.51077467  0.37120159  0.71025825     1.35200
C737        C  0.54871308  0.40069303  0.78672009     0.78000
C738        C  0.90343915  0.36825420  0.69664244     0.78000
C739        C  0.95982424  0.29050242  0.78302255     0.77900
C740        C  0.96735525  0.44812470  0.73316222     0.77900
O741        O  0.71413895  0.45404937  0.88171600    -0.71300
O742        O  0.81105358  0.99993846  0.90598202    -0.71500
O743        O  0.73259357  0.50181134  0.94848098    -0.71300
O744        O  0.78242673  0.48941031  0.83514090    -0.71300
O745        O  0.75044555  0.98562890  0.81544848    -0.71300
O746        O  0.69741594  0.01715850  0.92234746    -0.71300
O747        O  0.76711174  0.04584398  0.87032248    -0.71300
O748        O  0.67390211  0.50341764  0.84610307    -0.71400
V749        V  0.75671769  0.49702115  0.89129594     1.35200
V750        V  0.72482942  0.00059488  0.86915034     1.35200
C751        C  0.67919354  0.46410633  0.86049736     0.78000
C752        C  0.80486147  0.03734046  0.88600767     0.78000
C753        C  0.69805824  0.52350561  0.95226805     0.77900
C754        C  0.77327745  0.51640314  0.80273987     0.77900
O755        O  0.86340982  0.15962468  0.97602117    -0.71300
O756        O  0.85167390  0.28175597  0.56417094    -0.71500
O757        O  0.81153132  0.23896718  0.50037351    -0.71300
O758        O  0.92455439  0.23854081  0.54980667    -0.71300
O759        O  0.95096721  0.22047327  0.99926151    -0.71300
O760        O  0.85285365  0.26991156  0.93854288    -0.71300
O761        O  0.86655134  0.33216349  0.51151783    -0.71300
O762        O  0.90239258  0.19950269  0.92819364    -0.71400
V763        V  0.86803320  0.23940073  0.52418835     1.35200
V764        V  0.90125518  0.24411480  0.96970247     1.35200
C765        C  0.88200432  0.16443784  0.93772644     0.78000
C766        C  0.85454021  0.32163207  0.55192166     0.78000
C767        C  0.81558214  0.25607156  0.94959820     0.77900
C768        C  0.94679455  0.19610421  0.03512809     0.77900
C769        C  0.67458636  0.51909209  0.99495245    -0.15900
C770        C  0.65949872  0.48898969  0.50850297    -0.31100
H771        H  0.68527569  0.04054667  0.00846545     0.13100
H772        H  0.65799631  0.45626477  0.49817969     0.13700
C773        C  0.78620325  0.54442748  0.72695472    -0.15900
C774        C  0.79315933  0.51274861  0.75902125    -0.31100
H775        H  0.81769074  0.01497940  0.76055441     0.13100
H776        H  0.79976971  0.48011591  0.74993068     0.13700
C777        C  0.50658225  0.24788712  0.56702722    -0.15900
C778        C  0.99342769  0.27230769  0.55460193    -0.31100
H779        H  0.49031266  0.27903647  0.56781739     0.13100
H780        H  0.00141114  0.15468507  0.05231174     0.13700
C781        C  0.73736004  0.22450908  0.45299246    -0.15900
C782        C  0.76014131  0.26043309  0.44466975    -0.31100
H783        H  0.75362728  0.19352746  0.46044432     0.13100
H784        H  0.76943874  0.30716479  0.93081049     0.13700
C785        C  0.96794430  0.49335855  0.71822316    -0.15900
C786        C  0.47569727  0.01644586  0.73698602    -0.31100
H787        H  0.50175755  0.51153225  0.65267274     0.13100
H788        H  0.93853580  0.99988225  0.67085821     0.13700
C789        C  0.96265055  0.24563960  0.80048287    -0.15900
C790        C  0.54128047  0.24695165  0.80071195    -0.31100
H791        H  0.93242116  0.22754855  0.80220817     0.13100
H792        H  0.56997392  0.26438722  0.78814070     0.13700
C793        C  0.86973781  0.64772717  0.40259289     0.80700
N794        N  0.89728693  0.64799565  0.36642210    -0.77600
C795        C  0.89407592  0.61765085  0.33587710     0.83200
N796        N  0.86227328  0.58714190  0.34139291    -0.77500
C797        C  0.83388504  0.58655597  0.37701881     0.83300
N798        N  0.83808308  0.61677887  0.40773330    -0.79200
C799        C  0.87982258  0.84776993  0.10664662     0.80700
N800        N  0.90855558  0.84139810  0.14150506    -0.77600
C801        C  0.91020325  0.86948391  0.17445870     0.83200
N802        N  0.88194330  0.90400711  0.17225770    -0.77500
C803        C  0.85335328  0.91075073  0.13692969     0.83300
N804        N  0.85293041  0.88274387  0.10428045    -0.79200
C805        C  0.69326735  0.92005280  0.35318875     0.80700
N806        N  0.66152622  0.92277935  0.32035819    -0.77600
C807        C  0.62831715  0.89327697  0.32200938     0.83200
N808        N  0.62729520  0.86151217  0.35586268    -0.77500
C809        C  0.65776022  0.85777316  0.38863192     0.83900
N810        N  0.69076917  0.88742240  0.38758500    -0.79200
C811        C  0.66306239  0.56878431  0.15325703     0.80700
N812        N  0.66454890  0.60369633  0.12226516    -0.77600
C813        C  0.63477511  0.63612815  0.12296403     0.83200
N814        N  0.60290304  0.63339379  0.15430064    -0.77500
C815        C  0.60003482  0.59920639  0.18543950     0.83300
N816        N  0.63037047  0.56635949  0.18523361    -0.79200
O817        O  0.53095764  0.62485242  0.20759302    -0.71300
O818        O  0.92262726  0.64119581  0.26219859    -0.71500
O819        O  0.99271504  0.69033148  0.25147343    -0.71300
O820        O  0.94619991  0.60374809  0.18555946    -0.71300
O821        O  0.48877450  0.55236831  0.29326385    -0.71300
O822        O  0.55810599  0.64987001  0.31158592    -0.71300
O823        O  0.96100330  0.59408238  0.30336763    -0.71300
O824        O  0.56580394  0.58407063  0.25854188    -0.71400
V825        V  0.97018127  0.64645294  0.21971072     1.35200
V826        V  0.52325478  0.60115273  0.30145773     1.35200
C827        C  0.56378167  0.60119157  0.21846840     0.78000
C828        C  0.92670355  0.61696489  0.29850560     0.78000
C829        C  0.54845159  0.68525961  0.28979920     0.77900
C830        C  0.45933627  0.55497148  0.26335578     0.77900
O831        O  0.55868354  0.77625993  0.46459292    -0.71300
O832        O  0.66465240  0.71550736  0.45862540    -0.71500
O833        O  0.65083838  0.66854148  0.04957437    -0.71300
O834        O  0.63045998  0.78872240  0.41602874    -0.71300
O835        O  0.66086157  0.82563231  0.46609771    -0.71300
O836        O  0.61203149  0.70615263  0.09371999    -0.71300
O837        O  0.65166971  0.78008700  0.06218290    -0.71300
O838        O  0.55349392  0.71839122  0.02961370    -0.71400
V839        V  0.61230479  0.74675439  0.46289914     1.35200
V840        V  0.60332028  0.74858468  0.04462586     1.35200
C841        C  0.55667218  0.68824683  0.00375280     0.78000
C842        C  0.68763986  0.77224226  0.04428973     0.78000
C843        C  0.63340072  0.67205394  0.08761873     0.77900
C844        C  0.65106463  0.82222874  0.42514934     0.77900
O845        O  0.73836872  0.49494346  0.05668576    -0.71300
O846        O  0.80104320  0.50239406  0.16397202    -0.71500
O847        O  0.82753364  0.98033224  0.10607046    -0.71300
O848        O  0.73020306  0.54218707  0.12557342    -0.71300
O849        O  0.68966059  0.49441716  0.16258607    -0.71300
O850        O  0.78850932  0.94668505  0.15877016    -0.71300
O851        O  0.78540788  0.01639361  0.20257348    -0.71300
O852        O  0.71490763  0.97375877  0.11299144    -0.71400
V853        V  0.76899614  0.49721246  0.11077108     1.35200
V854        V  0.75086504  0.99603456  0.15718800     1.35200
C855        C  0.72145570  0.98704967  0.07236020     0.78000
C856        C  0.82000277  0.03669484  0.19206869     0.78000
C857        C  0.82204172  0.94753317  0.13390667     0.77900
C858        C  0.69585853  0.53357425  0.14824955     0.77900
O859        O  0.55334830  0.89455224  0.30059036    -0.71300
O860        O  0.94258627  0.87791503  0.24817804    -0.71500
O861        O  0.97804962  0.81550643  0.30758056    -0.71300
O862        O  0.00490588  0.92954883  0.27346941    -0.71300
O863        O  0.54876636  0.91787857  0.18210589    -0.71300
O864        O  0.55948266  0.80643710  0.24478571    -0.71300
O865        O  0.98243653  0.84872564  0.19834275    -0.71300
O866        O  0.60044520  0.88145270  0.24872567    -0.71400
V867        V  0.99218203  0.87241852  0.28848107     1.35200
V868        V  0.55303348  0.86218736  0.21359586     1.35200
C869        C  0.59287323  0.89242663  0.28809365     0.78000
C870        C  0.94610025  0.86484129  0.20883349     0.78000
C871        C  0.00227161  0.78662537  0.29406425     0.77900
C872        C  0.02691055  0.94039609  0.23879451     0.77900
O873        O  0.76422069  0.94506421  0.37503408    -0.71300
O874        O  0.80241414  0.51761146  0.40321241    -0.71500
O875        O  0.77527733  0.99853525  0.43832540    -0.71300
O876        O  0.83679186  0.98033178  0.33117622    -0.71300
O877        O  0.75534342  0.49587866  0.30571453    -0.71300
O878        O  0.68725194  0.53347907  0.40095807    -0.71300
O879        O  0.76299784  0.56047718  0.35833322    -0.71300
O880        O  0.72445416  0.99213102  0.33565241    -0.71400
V881        V  0.80516143  0.99016676  0.38440991     1.35200
V882        V  0.72238753  0.51414183  0.35410019     1.35200
C883        C  0.72899915  0.95366095  0.35376171     0.78000
C884        C  0.79793539  0.55392995  0.38062907     0.78000
C885        C  0.74197679  0.02283810  0.43727722     0.77900
C886        C  0.82956580  0.00575225  0.29666806     0.77900
O887        O  0.88462044  0.67104270  0.47649679    -0.71300
O888        O  0.87080345  0.77673313  0.08348078    -0.71500
O889        O  0.80152391  0.75780723  0.03646033    -0.71300
O890        O  0.91777696  0.71974752  0.04260525    -0.71300
O891        O  0.91730144  0.78324569  0.45454146    -0.71300
O892        O  0.80625716  0.74007306  0.48464543    -0.71300
O893        O  0.87710396  0.82882674  0.03042377    -0.71300
O894        O  0.86578568  0.72085578  0.42454468    -0.71400
V895        V  0.85952942  0.73863427  0.03772851     1.35200
V896        V  0.86195250  0.76080700  0.47063485     1.35200
C897        C  0.87383305  0.68125230  0.43579697     0.78000
C898        C  0.87634521  0.81647546  0.07214705     0.78000
C899        C  0.80090101  0.71172131  0.51708962     0.77900
C900        C  0.94984465  0.76247628  0.47032324     0.77900
C901        C  0.71554311  0.02499361  0.47733409    -0.15900
C902        C  0.69246117  0.97650857  0.03639535    -0.31100
H903        H  0.66062634  0.55503645  0.48681961     0.13100
H904        H  0.69211943  0.94254584  0.03003070     0.13700
C905        C  0.85276976  0.04123723  0.22661402    -0.15900
C906        C  0.85731498  0.00669707  0.25652895    -0.31100
H907        H  0.82476407  0.51344823  0.24681680     0.13100
H908        H  0.86319235  0.97521429  0.24409141     0.13700
C909        C  0.51890924  0.66152478  0.99685493    -0.15900
C910        C  0.99035247  0.74320817  0.03805122    -0.31100
H911        H  0.50913039  0.66059664  0.96183590     0.13100
H912        H  0.00780311  0.80181397  0.47266479     0.13700
C913        C  0.72489776  0.79931568  0.04890799    -0.15900
C914        C  0.74728680  0.80752064  0.01056690    -0.31100
H915        H  0.74169102  0.79478172  0.08098888     0.13100
H916        H  0.74383620  0.70043211  0.55875137     0.13700
C917        C  0.03987177  0.98494596  0.23271127    -0.15900
C918        C  0.43120811  0.51887717  0.25704059    -0.31100
H919        H  0.54977033  0.00616532  0.16803298     0.13100
H920        H  0.91935350  0.51356829  0.17658968     0.13700
C921        C  0.00128915  0.74374584  0.31721452    -0.15900
C922        C  0.56946347  0.72572477  0.29666405    -0.31100
H923        H  0.96919577  0.73169036  0.32723765     0.13100
H924        H  0.59725720  0.73420247  0.27512509     0.13700
C925        C  0.86008294  0.67367658  0.91956649     0.80700
N926        N  0.89299970  0.67186432  0.88846706    -0.77600
C927        C  0.89436233  0.63975766  0.85964864     0.83200
N928        N  0.86218289  0.60957292  0.86206770    -0.77500
C929        C  0.82887711  0.61100068  0.89251790     0.83300
N930        N  0.82810459  0.64309470  0.92127812    -0.79200
C931        C  0.87701208  0.82830552  0.58598734     0.80700
N932        N  0.90995749  0.82841759  0.61705858    -0.77600
C933        C  0.91155423  0.85985487  0.64660805     0.83200
N934        N  0.88026809  0.89137552  0.64427213    -0.77500
C935        C  0.84753564  0.89201779  0.61343696     0.83300
N936        N  0.84596329  0.86025250  0.58447473    -0.79200
C937        C  0.65016986  0.88769215  0.88766712     0.80700
N938        N  0.61693951  0.89181664  0.85705457    -0.77600
C939        C  0.58263106  0.86391321  0.86026541     0.83200
N940        N  0.58146372  0.83192875  0.89425734    -0.77500
C941        C  0.61438295  0.82698499  0.92457421     0.83900
N942        N  0.64882694  0.85474871  0.92108141    -0.79200
C943        C  0.63204604  0.60684243  0.62057023     0.80700
N944        N  0.63197900  0.64047471  0.58795586    -0.77600
C945        C  0.59886716  0.67034124  0.58495097     0.83200
N946        N  0.56525089  0.66644942  0.61540061    -0.77500
C947        C  0.56460557  0.63289445  0.64838252     0.83300
N948        N  0.59809103  0.60337615  0.65047566    -0.79200
O949        O  0.49180510  0.64758049  0.67698450    -0.71300
O950        O  0.92488473  0.65147228  0.78475071    -0.71500
O951        O  0.99502772  0.69655653  0.75582073    -0.71300
O952        O  0.94362181  0.59447317  0.72461753    -0.71300
O953        O  0.46810455  0.54756253  0.73404270    -0.71300
O954        O  0.50750570  0.64410489  0.79063696    -0.71300
O955        O  0.96646285  0.61890082  0.83598198    -0.71300
O956        O  0.53294797  0.60294024  0.71796807    -0.71400
V957        V  0.97049911  0.64475439  0.74121848     1.35200
V958        V  0.48693283  0.59630730  0.76159561     1.35200
C959        C  0.52821353  0.62793627  0.68239668     0.78000
C960        C  0.93028818  0.63718852  0.82560414     0.78000
C961        C  0.48845405  0.67981866  0.78171665     0.77900
C962        C  0.44376311  0.55233197  0.69976725     0.77900
O963        O  0.59238116  0.68223101  0.98416113    -0.71300
O964        O  0.69108220  0.74140918  0.01938685    -0.71500
O965        O  0.59399195  0.70298545  0.50855922    -0.71300
O966        O  0.63480581  0.75609468  0.95365338    -0.71300
O967        O  0.59381755  0.79274378  0.99668242    -0.71300
O968        O  0.61720815  0.74350610  0.55937688    -0.71300
O969        O  0.68984775  0.75145762  0.51252321    -0.71300
O970        O  0.58612638  0.81719940  0.51300430    -0.71400
V971        V  0.64142536  0.71282680  0.00248722     1.35200
V972        V  0.63798696  0.78382163  0.51172248     1.35200
C973        C  0.55495012  0.80822891  0.48795569     0.78000
C974        C  0.69379431  0.72102101  0.48707708     0.78000
C975        C  0.60174632  0.70763759  0.54980016     0.77900
C976        C  0.61382802  0.79035579  0.95958537     0.77900
O977        O  0.71849275  0.51536373  0.54664453    -0.71300
O978        O  0.77290854  0.55123172  0.64911974    -0.71500
O979        O  0.82340743  0.96603097  0.60635120    -0.71300
O980        O  0.70254552  0.57824224  0.59919461    -0.71300
O981        O  0.66286647  0.53690954  0.64493557    -0.71300
O982        O  0.77430096  0.91751770  0.62396462    -0.71300
O983        O  0.75998773  0.96098340  0.69545471    -0.71300
O984        O  0.70927685  0.96326968  0.58026017    -0.71400
V985        V  0.74480302  0.53175319  0.59870620     1.35200
V986        V  0.73522306  0.96323470  0.63782556     1.35200
C987        C  0.72646972  0.98634256  0.54833249     0.78000
C988        C  0.79060582  0.98628159  0.70316742     0.78000
C989        C  0.81344430  0.92647396  0.61334851     0.77900
C990        C  0.66753504  0.57289417  0.62199300     0.77900
O991        O  0.50812780  0.87298028  0.83807212    -0.71300
O992        O  0.93980245  0.87925654  0.71679029    -0.71500
O993        O  0.98267893  0.83765279  0.78800718    -0.71300
O994        O  0.98848258  0.94714596  0.72470855    -0.71300
O995        O  0.51811183  0.91547428  0.72304547    -0.71300
O996        O  0.49944320  0.80017808  0.76529900    -0.71300
O997        O  0.98654420  0.85115502  0.67251652    -0.71300
O998        O  0.55508533  0.86076159  0.78566671    -0.71400
V999        V  0.98655022  0.89226055  0.75539274     1.35200
V1000       V  0.50742663  0.85828352  0.74485354     1.35200
C1001       C  0.54731420  0.86669352  0.82651382     0.78000
C1002       C  0.94742040  0.86223597  0.68030178     0.78000
C1003       C  0.00917507  0.80855718  0.77856677     0.77900
C1004       C  0.00951487  0.95276508  0.68815533     0.77900
O1005       O  0.72190969  0.91262181  0.90678497    -0.71300
O1006       O  0.80098852  0.53857833  0.90114137    -0.71500
O1007       O  0.74206972  0.97342567  0.96034178    -0.71300
O1008       O  0.79075839  0.93762468  0.85357678    -0.71300
O1009       O  0.74429765  0.54478104  0.80782041    -0.71300
O1010       O  0.68468036  0.54765293  0.91892664    -0.71300
O1011       O  0.75503879  0.58945504  0.87923797    -0.71300
O1012       O  0.68117963  0.95718556  0.86518835    -0.71400
V1013       V  0.76563649  0.95690880  0.90613552     1.35200
V1014       V  0.71527475  0.54553825  0.86354213     1.35200
C1015       C  0.68611911  0.92023779  0.88614145     0.78000
C1016       C  0.79318973  0.57854188  0.89225778     0.78000
C1017       C  0.70967379  0.99873830  0.95956127     0.77900
C1018       C  0.78037291  0.95743436  0.81666277     0.77900
O1019       O  0.84835871  0.69828468  0.99354370    -0.71300
O1020       O  0.89295611  0.75761277  0.56148535    -0.71500
O1021       O  0.83303823  0.69862685  0.54058500    -0.71300
O1022       O  0.94444791  0.72955809  0.49755233    -0.71300
O1023       O  0.93383935  0.77582799  0.99683541    -0.71300
O1024       O  0.81625480  0.80102889  0.97711519    -0.71300
O1025       O  0.85686516  0.80206627  0.51504877    -0.71300
O1026       O  0.87431533  0.74518100  0.94240633    -0.71400
V1027       V  0.88847804  0.71512938  0.51820858     1.35200
V1028       V  0.87508194  0.78653435  0.98718485     1.35200
C1029       C  0.86049325  0.70723910  0.95299944     0.78000
C1030       C  0.87544643  0.79453303  0.55298953     0.78000
C1031       C  0.79006640  0.78797703  0.00774273     0.77900
C1032       C  0.94555395  0.74547950  0.02497007     0.77900
C1033       C  0.68806206  0.00673825  0.00179359    -0.15900
C1034       C  0.70940364  0.98819436  0.50293923    -0.31100
H1035       H  0.67532034  0.54745476  0.01405554     0.13100
H1036       H  0.70768346  0.95764706  0.48761519     0.13700
C1037       C  0.81022641  0.98422067  0.74737798    -0.15900
C1038       C  0.80257439  0.94938806  0.77545135    -0.31100
H1039       H  0.78196294  0.57756621  0.73546754     0.13100
H1040       H  0.79707368  0.91809650  0.76266846     0.13700
C1041       C  0.51386466  0.83220863  0.48835753    -0.15900
C1042       C  0.99366071  0.77446160  0.45759357    -0.31100
H1043       H  0.50424786  0.84291766  0.52089692     0.13100
H1044       H  0.00749766  0.71250380  0.03674754     0.13700
C1045       C  0.73228160  0.69376888  0.48983845    -0.15900
C1046       C  0.75772215  0.69505188  0.52597812    -0.31100
H1047       H  0.74611188  0.68569163  0.45781077     0.13100
H1048       H  0.73023365  0.81439734  0.97887223     0.13700
C1049       C  0.00607934  0.99393909  0.66170223    -0.15900
C1050       C  0.43659511  0.51580105  0.67360133    -0.31100
H1051       H  0.54090078  0.99999784  0.72241331     0.13100
H1052       H  0.90806338  0.50680381  0.74964964     0.13700
C1053       C  0.00936506  0.76680087  0.80465772    -0.15900
C1054       C  0.49822689  0.71741479  0.80538421    -0.31100
H1055       H  0.97836985  0.75621312  0.81941765     0.13100
H1056       H  0.53183277  0.72820768  0.80451719     0.13700
loop_ 
_geom_bond_atom_site_label_1 
_geom_bond_atom_site_label_2 
_geom_bond_distance 
_geom_bond_site_symmetry_2 
_ccdc_geom_bond_type 
C1            N2   1.369       .  A
C1            N6   1.365       .  A
C1          C105   1.496       .  S
N2            C3   1.370       .  A
C3            N4   1.368       .  A
C3           C36   1.503       .  S
N4            C5   1.370       .  A
C5            N6   1.361       .  A
C5           C92   1.492       .  S
C7            N8   1.361       .  A
C7           N12   1.362       .  A
C7          C106   1.470       .  S
N8            C9   1.357       .  A
C9           N10   1.364       .  A
C9           C78   1.483       .  S
N10          C11   1.366       .  A
C11          N12   1.363       .  A
C11          C65   1.481       .  S
C13          N14   1.376       .  A
C13          N18   1.366       .  A
C13          C91   1.504       .  S
N14          C15   1.376       .  A
C15          N16   1.370       .  A
C15          C77   1.506       .  S
N16          C17   1.364       .  A
C17          N18   1.361       .  A
C17          C52   1.503       .  S
C19          N20   1.377       .  A
C19          N24   1.378       .  A
C19          C66   1.512       .  S
N20          C21   1.368       .  A
C21          N22   1.352       .  A
C21          C51   1.488       .  S
N22          C23   1.353       .  A
C23          N24   1.374       .  A
C23          C35   1.494       .  S
O25          C35   1.267       .  A
O25         V561   1.900       .  S
O26          C36   1.274       .  A
O26          V33   1.940       .  S
O27         C565   1.257       .  A
O27          V33   1.856       .  S
O28         C566   1.253       .  A
O28          V33   1.876       .  S
O29          C38   1.259       .  A
O29          V34   1.875       .  S
O30          C37   1.258       .  A
O30          V34   1.888       .  S
O31          C36   1.266       .  A
O31         V562   1.917       .  S
O32          C35   1.272       .  A
O32          V34   1.941       .  S
V33         O553   1.933       .  S
V33         V562   2.088       .  T
V34         O559   1.945       .  S
V34         V561   2.075       .  T
C37         O555   1.261       .  A
C37         C130   1.440       .  S
C38         O556   1.258       .  A
C38         C126   1.432       .  S
O39         C181   1.264       .  A
O39          V47   1.876       .  S
O40         C182   1.261       .  A
O40          V47   1.898       .  S
O41          C51   1.273       .  A
O41         V179   1.939   1_554  S
O42          C52   1.270       .  A
O42          V47   1.927       .  S
O43          C52   1.271       .  A
O43         V180   1.925       .  S
O44          C51   1.263       .  A
O44          V48   1.899       .  S
O45          C50   1.264   1_554  A
O45          V48   1.876       .  S
O46          C49   1.262       .  A
O46          V48   1.897       .  S
V47         O173   1.922       .  S
V47         V180   2.089       .  T
V48         O175   1.896   1_554  S
V48         V179   2.088   1_554  T
C49         O171   1.262       .  A
C49         C117   1.461       .  S
C50         O172   1.255       .  A
C50         C121   1.446       .  S
O53         C327   1.263       .  A
O53          V61   1.876   1_565  S
O54         C328   1.260   1_545  A
O54          V61   1.897       .  S
O55          C65   1.267       .  A
O55         V325   1.914       .  S
O56          C66   1.270       .  A
O56          V61   1.926       .  S
O57          C66   1.273       .  A
O57         V326   1.938   1_545  S
O58          C65   1.266       .  A
O58          V62   1.913       .  S
O59          C64   1.262       .  A
O59          V62   1.868       .  S
O60          C63   1.258       .  A
O60          V62   1.889       .  S
V61         O319   1.927   1_545  S
V61         V326   2.085   1_545  T
V62         O321   1.906       .  S
V62         V325   2.090       .  T
C63         O317   1.264       .  A
C63         C110   1.455       .  S
C64         O318   1.259       .  A
C64         C113   1.451       .  S
O67          C77   1.269       .  A
O67         V603   1.921   1_455  S
O68          C78   1.269       .  A
O68          V75   1.923       .  S
O69          C79   1.262       .  A
O69          V75   1.871       .  S
O70          C80   1.255       .  A
O70          V75   1.882       .  S
O71         C608   1.260   1_455  A
O71          V76   1.893       .  S
O72         C607   1.261       .  A
O72          V76   1.874       .  S
O73          C78   1.265       .  A
O73         V604   1.907       .  S
O74          C77   1.272       .  A
O74          V76   1.936       .  S
V75         O595   1.909       .  S
V75         V604   2.087       .  T
V76         O601   1.935   1_455  S
V76         V603   2.085   1_455  T
C79         O600   1.258       .  A
C79         C129   1.445       .  S
C80         O599   1.264       .  A
C80         C125   1.443       .  S
O81          C91   1.270       .  A
O81          V89   1.918       .  S
O82          C92   1.270       .  A
O82         V353   1.925   1_545  S
O83          C93   1.261       .  A
O83          V89   1.870       .  S
O84          C94   1.257       .  A
O84          V89   1.881       .  S
O85         C358   1.264       .  A
O85          V90   1.878   1_565  S
O86         C357   1.260       .  A
O86          V90   1.896       .  S
O87          C92   1.267       .  A
O87          V90   1.916       .  S
O88          C91   1.271       .  A
O88         V354   1.934       .  S
V89         O346   1.919       .  S
V89         V354   2.085       .  T
V90         O352   1.919   1_545  S
V90         V353   2.088   1_545  T
C93         O350   1.262       .  A
C93         C109   1.457       .  S
C94         O349   1.267       .  A
C94         C114   1.461       .  S
O95         C105   1.268       .  A
O95         V235   1.914       .  S
O96         C106   1.261       .  A
O96         V103   1.893       .  S
O97         C239   1.265   1_554  A
O97         V103   1.876       .  S
O98         C240   1.261       .  A
O98         V103   1.896       .  S
O99         C108   1.261       .  A
O99         V104   1.868       .  S
O100        C107   1.257       .  A
O100        V104   1.884       .  S
O101        C106   1.269       .  A
O101        V236   1.921   1_554  S
O102        C105   1.270       .  A
O102        V104   1.926       .  S
V103        O227   1.896   1_554  S
V103        V236   2.086   1_554  T
V104        O233   1.921       .  S
V104        V235   2.088       .  T
C107        O229   1.265       .  A
C107        C254   1.455       .  S
C108        O230   1.261       .  A
C108        C250   1.454       .  S
C109        C242   1.346       .  D
C109        H375   1.088       .  S
C110        C241   1.341       .  D
C110        H112   1.087       .  S
H111        C373   1.087       .  S
C113        C114   1.333       .  D
C113        H379   1.087       .  S
C114        H116   1.088       .  S
H115        C377   1.087   1_545  S
C117        C646   1.339   1_455  D
C117        H119   1.088   1_455  S
C118        C240   1.451       .  S
C118        C645   1.340       .  D
C118        H252   1.087       .  S
H120        C250   1.087       .  S
C121        C122   1.331       .  D
C121        H123   1.088       .  S
C122        C239   1.437       .  S
C122        H256   1.087       .  S
H124        C254   1.088       .  S
C125        C918   1.328       .  D
C125        H655   1.087       .  S
C126        C917   1.340   1_545  D
C126        H656   1.089   1_545  S
H127        C653   1.088   1_455  S
H128        C654   1.087   1_565  S
C129        C658   1.340       .  D
C129        H131   1.088       .  S
C130        C657   1.333       .  D
C130        H132   1.086       .  S
C133        N134   1.362       .  A
C133        N138   1.368       .  A
C133        C237   1.483       .  S
N134        C135   1.362       .  A
C135        N136   1.364       .  A
C135        C168   1.480       .  S
N136        C137   1.364       .  A
C137        N138   1.362       .  A
C137        C224   1.489       .  S
C139        N140   1.374       .  A
C139        N144   1.367       .  A
C139        C238   1.494       .  S
N140        C141   1.369       .  A
C141        N142   1.367       .  A
C141        C210   1.511       .  S
N142        C143   1.367       .  A
C143        N144   1.365       .  A
C143        C197   1.497       .  S
C145        N146   1.368       .  A
C145        N150   1.360       .  A
C145        C223   1.501       .  S
N146        C147   1.371       .  A
C147        N148   1.374       .  A
C147        C209   1.498       .  S
N148        C149   1.368       .  A
C149        N150   1.363       .  A
C149        C184   1.497       .  S
C151        N152   1.365       .  A
C151        N156   1.367       .  A
C151        C198   1.504       .  S
N152        C153   1.368       .  A
C153        N154   1.375       .  A
C153        C183   1.497       .  S
N154        C155   1.371       .  A
C155        N156   1.369       .  A
C155        C167   1.513       .  S
O157        C167   1.277       .  A
O157        V693   1.950   1_455  S
O158        C168   1.267       .  A
O158        V165   1.914       .  S
O159        C697   1.257       .  A
O159        V165   1.856       .  S
O160        C698   1.250       .  A
O160        V165   1.864       .  S
O161        C170   1.266       .  A
O161        V166   1.880   1_655  S
O162        C169   1.260       .  A
O162        V166   1.895       .  S
O163        C168   1.267       .  A
O163        V694   1.915       .  S
O164        C167   1.267       .  A
O164        V166   1.915       .  S
V165        O685   1.910       .  S
V165        V694   2.091       .  T
V166        O691   1.921   1_455  S
V166        V693   2.087   1_455  T
C169        O687   1.258   1_455  A
C169        C262   1.444       .  S
C170        O688   1.254       .  A
C170        C258   1.447       .  S
O171        V179   1.877   1_554  S
O172        V179   1.878       .  S
O173        C183   1.268       .  A
O174        C184   1.275       .  A
O174        V179   1.945       .  S
O175        C184   1.263       .  A
O176        C183   1.270       .  A
O176        V180   1.928       .  S
O177        C182   1.260       .  A
O177        V180   1.867       .  S
O178        C181   1.255       .  A
O178        V180   1.884       .  S
C181        C249   1.445       .  S
C182        C253   1.451       .  S
O185        C459   1.260   1_545  A
O185        V193   1.867       .  S
O186        C460   1.253       .  A
O186        V193   1.879       .  S
O187        C197   1.268       .  A
O187        V457   1.919       .  S
O188        C198   1.274       .  A
O188        V193   1.936       .  S
O189        C198   1.267       .  A
O189        V458   1.916   1_545  S
O190        C197   1.271       .  A
O190        V194   1.931       .  S
O191        C196   1.266       .  A
O191        V194   1.885       .  S
O192        C195   1.263       .  A
O192        V194   1.905       .  S
V193        O451   1.945   1_545  S
V193        V458   2.088   1_545  T
V194        O453   1.940       .  S
V194        V457   2.082       .  T
C195        O449   1.259       .  A
C195        C242   1.454       .  S
C196        O450   1.253       .  A
C196        C245   1.441       .  S
O199        C209   1.271   1_655  A
O199        V735   1.930       .  S
O200        C210   1.269       .  A
O200        V207   1.921       .  S
O201        C211   1.259       .  A
O201        V207   1.888       .  S
O202        C212   1.264       .  A
O202        V207   1.874       .  S
O203        C740   1.255       .  A
O203        V208   1.874       .  S
O204        C739   1.261       .  A
O204        V208   1.868       .  S
O205        C210   1.274       .  A
O205        V736   1.940       .  S
O206        C209   1.269       .  A
O206        V208   1.922   1_455  S
V207        O727   1.922       .  S
V207        V736   2.085       .  T
V208        O733   1.922       .  S
V208        V735   2.084       .  T
C211        O732   1.263       .  A
C211        C261   1.455       .  S
C212        O731   1.258       .  A
C212        C257   1.455       .  S
O213        C223   1.272       .  A
O213        V221   1.924       .  S
O214        C224   1.268       .  A
O214        V485   1.917   1_545  S
O215        C225   1.261       .  A
O215        V221   1.863       .  S
O216        C226   1.253       .  A
O216        V221   1.876       .  S
O217        C490   1.264       .  A
O217        V222   1.878       .  S
O218        C489   1.260       .  A
O218        V222   1.895       .  S
O219        C224   1.269       .  A
O219        V222   1.920       .  S
O220        C223   1.268       .  A
O220        V486   1.926       .  S
V221        O478   1.939       .  S
V221        V486   2.086       .  T
V222        O484   1.930       .  S
V222        V485   2.084   1_545  T
C225        O482   1.260       .  A
C225        C241   1.454   1_556  S
C226        O481   1.264       .  A
C226        C246   1.438       .  S
O227        C237   1.261       .  A
O228        C238   1.269       .  A
O228        V235   1.923       .  S
O229        V235   1.890       .  S
O230        V235   1.899       .  S
O231        C240   1.260       .  A
O231        V236   1.868   1_554  S
O232        C239   1.253       .  A
O232        V236   1.878       .  S
O233        C238   1.269       .  A
O234        C237   1.273       .  A
O234        V236   1.929       .  S
C241        H507   1.087       .  S
C242        H244   1.087       .  S
H243        C505   1.088       .  S
C245        C246   1.325       .  D
C245        H511   1.089       .  S
C246        H248   1.087       .  S
H247        C509   1.087       .  S
C249        C778   1.340   1_455  D
C249        H251   1.087   1_455  S
C250        C777   1.344       .  D
C253        C254   1.335       .  D
C253        H255   1.087       .  S
C257       C1050   1.337       .  D
C257        H787   1.088       .  S
C258       C1049   1.335   1_645  D
C258        H788   1.088   1_545  S
H259        C785   1.088       .  S
H260        C786   1.088       .  S
C261        C790   1.341       .  D
C261        H263   1.088       .  S
C262        C789   1.342   1_455  D
C262        H264   1.086       .  S
C265        N266   1.364       .  A
C265        N270   1.373       .  A
C265        C369   1.486       .  S
N266        C267   1.360       .  A
C267        N268   1.360       .  A
C267        C300   1.477       .  S
N268        C269   1.361       .  A
C269        N270   1.369       .  A
C269        C356   1.494       .  S
C271        N272   1.377       .  A
C271        N276   1.376       .  A
C271        C370   1.515       .  S
N272        C273   1.374       .  A
C273        N274   1.364       .  A
C273        C342   1.509       .  S
N274        C275   1.362       .  A
C275        N276   1.371       .  A
C275        C329   1.505       .  S
C277        N278   1.369       .  A
C277        N282   1.371       .  A
C277        C355   1.499       .  S
N278        C279   1.365       .  A
C279        N280   1.359       .  A
C279        C341   1.487       .  S
N280        C281   1.362       .  A
C281        N282   1.368       .  A
C281        C316   1.487       .  S
C283        N284   1.359       .  A
C283        N288   1.359       .  A
C283        C330   1.472       .  S
N284        C285   1.357       .  A
C285        N286   1.372       .  A
C285        C315   1.483       .  S
N286        C287   1.370       .  A
C287        N288   1.361       .  A
C287        C299   1.495       .  S
O289        C299   1.269       .  A
O289        V825   1.926   1_455  S
O290        C300   1.267       .  A
O290        V297   1.912       .  S
O291        C829   1.257       .  A
O291        V297   1.857       .  S
O292        C830   1.252       .  A
O292        V297   1.868       .  S
O293        C302   1.262       .  A
O293        V298   1.870   1_655  S
O294        C301   1.255       .  A
O294        V298   1.883       .  S
O295        C300   1.265       .  A
O295        V826   1.911       .  S
O296        C299   1.269       .  A
O296        V298   1.913       .  S
V297        O817   1.903       .  S
V297        V826   2.088       .  T
V298        O823   1.919   1_455  S
V298        V825   2.089   1_455  T
C301        O819   1.262   1_455  A
C301        C394   1.438       .  S
C302        O820   1.258       .  A
C302        C390   1.448       .  S
O303        C445   1.255       .  A
O303        V311   1.868       .  S
O304        C446   1.256       .  A
O304        V311   1.872       .  S
O305        C315   1.269       .  A
O305        V443   1.920   1_554  S
O306        C316   1.272       .  A
O306        V311   1.926       .  S
O307        C316   1.264       .  A
O307        V444   1.909       .  S
O308        C315   1.265       .  A
O308        V312   1.911       .  S
O309        C314   1.263       .  A
O309        V312   1.864   1_556  S
O310        C313   1.256       .  A
O310        V312   1.880       .  S
V311        O437   1.921       .  S
V311        V444   2.080       .  T
V312        O439   1.906   1_554  S
V312        V443   2.090   1_554  T
C313        O435   1.258   1_554  A
C313        C381   1.430       .  S
C314        O436   1.253       .  A
C314        C385   1.435       .  S
O317        V325   1.876       .  S
O318        V325   1.895       .  S
O319        C329   1.270       .  A
O320        C330   1.265       .  A
O320        V325   1.901       .  S
O321        C330   1.266       .  A
O322        C329   1.271       .  A
O322        V326   1.933       .  S
O323        C328   1.262       .  A
O323        V326   1.872       .  S
O324        C327   1.256       .  A
O324        V326   1.887       .  S
C327        C374   1.447       .  S
C328        C377   1.459       .  S
O331        C341   1.275       .  A
O331        V867   1.935   1_455  S
O332        C342   1.271       .  A
O332        V339   1.924       .  S
O333        C343   1.256       .  A
O333        V339   1.873       .  S
O334        C344   1.257       .  A
O334        V339   1.853       .  S
O335        C872   1.263       .  A
O335        V340   1.901       .  S
O336        C871   1.269       .  A
O336        V340   1.891       .  S
O337        C342   1.271       .  A
O337        V868   1.935       .  S
O338        C341   1.262       .  A
O338        V340   1.905       .  S
V339        O859   1.919       .  S
V339        V868   2.085       .  T
V340        O865   1.914   1_455  S
V340        V867   2.081   1_455  T
C343        O864   1.268       .  A
C343        C393   1.460       .  S
C344        O863   1.263       .  A
C344        C389   1.450       .  S
O345        C355   1.270       .  A
O345        V353   1.923       .  S
O346        C356   1.269       .  A
O347        C357   1.263   1_565  A
O347        V353   1.878       .  S
O348        C358   1.258       .  A
O348        V353   1.891       .  S
O349        V354   1.896       .  S
O350        V354   1.901       .  S
O351        C356   1.269       .  A
O351        V354   1.926       .  S
O352        C355   1.269       .  A
C357        C373   1.457       .  S
C358        C378   1.458       .  S
O359        C369   1.269       .  A
O359        V499   1.921       .  S
O360        C370   1.269       .  A
O360        V367   1.927       .  S
O361        C503   1.263   1_554  A
O361        V367   1.871       .  S
O362        C504   1.262       .  A
O362        V367   1.898       .  S
O363        C372   1.262       .  A
O363        V368   1.902       .  S
O364        C371   1.263       .  A
O364        V368   1.876       .  S
O365        C370   1.276       .  A
O365        V500   1.946   1_554  S
O366        C369   1.266       .  A
O366        V368   1.914       .  S
V367        O491   1.927   1_554  S
V367        V500   2.087   1_554  T
V368        O497   1.909       .  S
V368        V499   2.089       .  T
C371        O493   1.254       .  A
C371        C518   1.436       .  S
C372        O494   1.260       .  A
C372        C514   1.455       .  S
C373        C506   1.341   1_545  D
C374        C505   1.338   1_565  D
C374        H376   1.087       .  S
C377        C378   1.340       .  D
C378        H380   1.087       .  S
C381        C910   1.339   1_455  D
C381        H383   1.089   1_455  S
C382        C504   1.454       .  S
C382        C909   1.341   1_554  D
C382        H516   1.087       .  S
H384        C514   1.087       .  S
C385        C386   1.330       .  D
C385        H387   1.089       .  S
C386        C503   1.425       .  S
C386        H520   1.087       .  S
H388        C518   1.087       .  S
C389        C654   1.338   1_565  D
C389        H919   1.087   1_565  S
C390        C653   1.338       .  D
C390        H920   1.087       .  S
H391        C917   1.086   1_545  S
H392        C918   1.088       .  S
C393        C922   1.333       .  D
C393        H395   1.089       .  S
C394        C921   1.330       .  D
C394        H396   1.087       .  S
C397        N398   1.363       .  A
C397        N402   1.377       .  A
C397        C501   1.512       .  S
N398        C399   1.363       .  A
C399        N400   1.367       .  A
C399        C432   1.496       .  S
N400        C401   1.371       .  A
C401        N402   1.377       .  A
C401        C488   1.513       .  S
C403        N404   1.352       .  A
C403        N408   1.366       .  A
C403        C502   1.477       .  S
N404        C405   1.352       .  A
C405        N406   1.377       .  A
C405        C474   1.496       .  S
N406        C407   1.380       .  A
C407        N408   1.368       .  A
C407        C461   1.510       .  S
C409        N410   1.374       .  A
C409        N414   1.365       .  A
C409        C487   1.496       .  S
N410        C411   1.373       .  A
C411        N412   1.358       .  A
C411        C473   1.482       .  S
N412        C413   1.353       .  A
C413        N414   1.361       .  A
C413        C448   1.480       .  S
C415        N416   1.358       .  A
C415        N420   1.379       .  A
C415        C462   1.503       .  S
N416        C417   1.354       .  A
C417        N418   1.364       .  A
C417        C447   1.485       .  S
N418        C419   1.369       .  A
C419        N420   1.383       .  A
C419        C431   1.515       .  S
O421        C431   1.273       .  A
O421        V957   1.928   1_455  S
O422        C432   1.272       .  A
O422        V429   1.932       .  S
O423        C961   1.260       .  A
O423        V429   1.866       .  S
O424        C962   1.256       .  A
O424        V429   1.886       .  S
O425        C434   1.261       .  A
O425        V430   1.869   1_655  S
O426        C433   1.260       .  A
O426        V430   1.896       .  S
O427        C432   1.267       .  A
O427        V958   1.916       .  S
O428        C431   1.272       .  A
O428        V430   1.939       .  S
V429        O949   1.937       .  S
V429        V958   2.087       .  T
V430        O955   1.930   1_455  S
V430        V957   2.088   1_455  T
C433        O951   1.260   1_455  A
C433        C526   1.447       .  S
C434        O952   1.253       .  A
C434        C522   1.427       .  S
O435        V443   1.848       .  S
O436        V443   1.872       .  S
O437        C447   1.272       .  A
O438        C448   1.269       .  A
O438        V443   1.915       .  S
O439        C448   1.264       .  A
O440        C447   1.264       .  A
O440        V444   1.908       .  S
O441        C446   1.266       .  A
O441        V444   1.889       .  S
O442        C445   1.266       .  A
O442        V444   1.890       .  S
C445        C513   1.445       .  S
C446        C517   1.451       .  S
O449        V457   1.864       .  S
O450        V457   1.866       .  S
O451        C461   1.276       .  A
O452        C462   1.271       .  A
O452        V457   1.915       .  S
O453        C462   1.271       .  A
O454        C461   1.267       .  A
O454        V458   1.922       .  S
O455        C460   1.264       .  A
O455        V458   1.872   1_545  S
O456        C459   1.262       .  A
O456        V458   1.900       .  S
C459        C506   1.455       .  S
C460        C509   1.437       .  S
O463        C473   1.265       .  A
O463        V999   1.906   1_455  S
O464        C474   1.267       .  A
O464        V471   1.927       .  S
O465        C475   1.260       .  A
O465        V471   1.891       .  S
O466        C476   1.261       .  A
O466        V471   1.860       .  S
O467       C1004   1.257       .  A
O467        V472   1.888       .  S
O468       C1003   1.263       .  A
O468        V472   1.884       .  S
O469        C474   1.272       .  A
O469       V1000   1.914       .  S
O470        C473   1.269       .  A
O470        V472   1.926       .  S
V471        O991   1.915       .  S
V471       V1000   2.085       .  T
V472        O997   1.935   1_455  S
V472        V999   2.087   1_455  T
C475        O996   1.261       .  A
C475        C525   1.450       .  S
C476        O995   1.253       .  A
C476        C521   1.427       .  S
O477        C487   1.269       .  A
O477        V485   1.914       .  S
O478        C488   1.274       .  A
O479        C489   1.262   1_565  A
O479        V485   1.869       .  S
O480        C490   1.256   1_565  A
O480        V485   1.876       .  S
O481        V486   1.873       .  S
O482        V486   1.897       .  S
O483        C488   1.270       .  A
O483        V486   1.930       .  S
O484        C487   1.270   1_545  A
C489        C505   1.452   1_556  S
C490        C510   1.447       .  S
O491        C501   1.268       .  A
O492        C502   1.268       .  A
O492        V499   1.904       .  S
O493        V499   1.879       .  S
O494        V499   1.868       .  S
O495        C504   1.259   1_556  A
O495        V500   1.860       .  S
O496        C503   1.250       .  A
O496        V500   1.867       .  S
O497        C502   1.263       .  A
O498        C501   1.276       .  A
O498        V500   1.937       .  S
C506        H508   1.087       .  S
C509        C510   1.331       .  D
C510        H512   1.089   1_545  S
C513       C1042   1.327   1_455  D
C513        H515   1.090       .  S
C514       C1041   1.340       .  D
C517        C518   1.327       .  D
C517        H519   1.090       .  S
C521        C786   1.325   1_565  D
C521       H1051   1.088       .  S
C522        C785   1.329       .  D
C522       H1052   1.086       .  S
H523       C1049   1.088   1_545  S
H524       C1050   1.088       .  S
C525       C1054   1.339       .  D
C525        H527   1.087       .  S
C526       C1053   1.338       .  D
C526        H528   1.086       .  S
C529        N530   1.372       .  A
C529        N534   1.373       .  A
C529        C633   1.506       .  S
N530        C531   1.372       .  A
C531        N532   1.368       .  A
C531        C564   1.504       .  S
N532        C533   1.366       .  A
C533        N534   1.367       .  A
C533        C620   1.507       .  S
C535        N536   1.374       .  A
C535        N540   1.376       .  A
C535        C634   1.500       .  S
N536        C537   1.368       .  A
C537        N538   1.357       .  A
C537        C606   1.493       .  S
N538        C539   1.356       .  A
C539        N540   1.369       .  A
C539        C593   1.493       .  S
C541        N542   1.366       .  A
C541        N546   1.366       .  A
C541        C619   1.498       .  S
N542        C543   1.367       .  A
C543        N544   1.361       .  A
C543        C605   1.480       .  S
N544        C545   1.356       .  A
C545        N546   1.367       .  A
C545        C580   1.484       .  S
C547        N548   1.369       .  A
C547        N552   1.365       .  A
C547        C594   1.496       .  S
N548        C549   1.369       .  A
C549        N550   1.366       .  A
C549        C579   1.488       .  S
N550        C551   1.362       .  A
C551        N552   1.363       .  A
C551        C563   1.494       .  S
O553        C563   1.273       .  A
O554        C564   1.267       .  A
O554        V561   1.913   1_655  S
O555        V561   1.868       .  S
O556        V561   1.868       .  S
O557        C566   1.266       .  A
O557        V562   1.888       .  S
O558        C565   1.261       .  A
O558        V562   1.898       .  S
O559        C564   1.276   1_455  A
O560        C563   1.264       .  A
O560        V562   1.906       .  S
C565        C658   1.445       .  S
C566        C654   1.443       .  S
O567        C709   1.260       .  A
O567        V575   1.866       .  S
O568        C710   1.252       .  A
O568        V575   1.873       .  S
O569        C579   1.269       .  A
O569        V707   1.922   1_554  S
O570        C580   1.272       .  A
O570        V575   1.926       .  S
O571        C580   1.262       .  A
O571        V708   1.899       .  S
O572        C579   1.266       .  A
O572        V576   1.915       .  S
O573        C578   1.264       .  A
O573        V576   1.884   1_556  S
O574        C577   1.260       .  A
O574        V576   1.895       .  S
V575        O701   1.916       .  S
V575        V708   2.090       .  T
V576        O703   1.906   1_554  S
V576        V707   2.089   1_554  T
C577        O699   1.261   1_554  A
C577        C645   1.451       .  S
C578        O700   1.257       .  A
C578        C649   1.453       .  S
O581        C855   1.261   1_545  A
O581        V589   1.870       .  S
O582        C856   1.257       .  A
O582        V589   1.889       .  S
O583        C593   1.267       .  A
O583        V853   1.913       .  S
O584        C594   1.271       .  A
O584        V589   1.928       .  S
O585        C594   1.267       .  A
O585        V854   1.909   1_545  S
O586        C593   1.270       .  A
O586        V590   1.931       .  S
O587        C592   1.265       .  A
O587        V590   1.887       .  S
O588        C591   1.260       .  A
O588        V590   1.897       .  S
V589        O847   1.923   1_545  S
V589        V854   2.089   1_545  T
V590        O849   1.935       .  S
V590        V853   2.086       .  T
C591        O845   1.262       .  A
C591        C638   1.456       .  S
C592        O846   1.258       .  A
C592        C641   1.457       .  S
O595        C605   1.268       .  A
O596        C606   1.267       .  A
O596        V603   1.905       .  S
O597        C607   1.257   1_655  A
O597        V603   1.880       .  S
O598        C608   1.264       .  A
O598        V603   1.879       .  S
O599        V604   1.868       .  S
O600        V604   1.887       .  S
O601        C606   1.271       .  A
O602        C605   1.265       .  A
O602        V604   1.910       .  S
C607        C657   1.440       .  S
C608        C653   1.462       .  S
O609        C619   1.269       .  A
O609        V617   1.921       .  S
O610        C620   1.269       .  A
O610        V881   1.926   1_545  S
O611        C621   1.263       .  A
O611        V617   1.874       .  S
O612        C622   1.258       .  A
O612        V617   1.890       .  S
O613        C886   1.262       .  A
O613        V618   1.867       .  S
O614        C885   1.254       .  A
O614        V618   1.878       .  S
O615        C620   1.273       .  A
O615        V618   1.937       .  S
O616        C619   1.269       .  A
O616        V882   1.922       .  S
V617        O874   1.932       .  S
V617        V882   2.087       .  T
V618        O880   1.947   1_545  S
V618        V881   2.086   1_545  T
C621        O878   1.259       .  A
C621        C637   1.457       .  S
C622        O877   1.264       .  A
C622        C642   1.453       .  S
O623        C633   1.265       .  A
O623        V763   1.911       .  S
O624        C634   1.270       .  A
O624        V631   1.927       .  S
O625        C767   1.262       .  A
O625        V631   1.871   1_556  S
O626        C768   1.259       .  A
O626        V631   1.895       .  S
O627        C636   1.259       .  A
O627        V632   1.863       .  S
O628        C635   1.253       .  A
O628        V632   1.873       .  S
O629        C634   1.270       .  A
O629        V764   1.927   1_554  S
O630        C633   1.276       .  A
O630        V632   1.945       .  S
V631        O755   1.923   1_554  S
V631        V764   2.087   1_554  T
V632        O761   1.939       .  S
V632        V763   2.087       .  T
C635        O757   1.265       .  A
C635        C782   1.440       .  S
C636        O758   1.261       .  A
C636        C778   1.453       .  S
C637        C770   1.344       .  D
C637        H903   1.087       .  S
C638        C769   1.343   1_554  D
C638        H640   1.087   1_554  S
H639        C901   1.088       .  S
C641        C642   1.333       .  D
C641        H907   1.088       .  S
C642        H644   1.087       .  S
H643        C905   1.087       .  S
C645        H647   1.087       .  S
C646        C768   1.451       .  S
C646        H780   1.087   1_655  S
H648        C778   1.088   1_455  S
C649        C650   1.334       .  D
C649        H651   1.088       .  S
C650        C767   1.449       .  S
C650        H784   1.087       .  S
H652        C782   1.088       .  S
C657        H659   1.087   1_455  S
C658        H660   1.087       .  S
C661        N662   1.369       .  A
C661        N666   1.368       .  A
C661        C765   1.506       .  S
N662        C663   1.370       .  A
C663        N664   1.373       .  A
C663        C696   1.513       .  S
N664        C665   1.376       .  A
C665        N666   1.366       .  A
C665        C752   1.507       .  S
C667        N668   1.362       .  A
C667        N672   1.372       .  A
C667        C766   1.496       .  S
N668        C669   1.358       .  A
C669        N670   1.372       .  A
C669        C738   1.504       .  S
N670        C671   1.375       .  A
C671        N672   1.375       .  A
C671        C725   1.512       .  S
C673        N674   1.375       .  A
C673        N678   1.360       .  A
C673        C751   1.499       .  S
N674        C675   1.376       .  A
C675        N676   1.371       .  A
C675        C737   1.502       .  S
N676        C677   1.363       .  A
C677        N678   1.357       .  A
C677        C712   1.493       .  S
C679        N680   1.365       .  A
C679        N684   1.378       .  A
C679        C726   1.498       .  S
N680        C681   1.357       .  A
C681        N682   1.351       .  A
C681        C711   1.465       .  S
N682        C683   1.353       .  A
C683        N684   1.377       .  A
C683        C695   1.492       .  S
O685        C695   1.270       .  A
O686        C696   1.277       .  A
O686        V693   1.948       .  S
O687        V693   1.857       .  S
O688        V693   1.880       .  S
O689        C698   1.262       .  A
O689        V694   1.870       .  S
O690        C697   1.261       .  A
O690        V694   1.899       .  S
O691        C696   1.267       .  A
O692        C695   1.267       .  A
O692        V694   1.925       .  S
C697        C790   1.444       .  S
C698        C786   1.422       .  S
O699        V707   1.872       .  S
O700        V707   1.885       .  S
O701        C711   1.268       .  A
O702        C712   1.271       .  A
O702        V707   1.931       .  S
O703        C712   1.266       .  A
O704        C711   1.260       .  A
O704        V708   1.891       .  S
O705        C710   1.265       .  A
O705        V708   1.876       .  S
O706        C709   1.263       .  A
O706        V708   1.901       .  S
C709        C777   1.456       .  S
C710        C781   1.435       .  S
O713        C987   1.262   1_545  A
O713        V721   1.867       .  S
O714        C988   1.256   1_545  A
O714        V721   1.878       .  S
O715        C725   1.275       .  A
O715        V985   1.942       .  S
O716        C726   1.269       .  A
O716        V721   1.915       .  S
O717        C726   1.270       .  A
O717        V986   1.933   1_545  S
O718        C725   1.269       .  A
O718        V722   1.927       .  S
O719        C724   1.266       .  A
O719        V722   1.881       .  S
O720        C723   1.261       .  A
O720        V722   1.900       .  S
V721        O979   1.920   1_545  S
V721        V986   2.085   1_545  T
V722        O981   1.924       .  S
V722        V985   2.085       .  T
C723        O977   1.259       .  A
C723        C770   1.455       .  S
C724        O978   1.253       .  A
C724        C773   1.443       .  S
O727        C737   1.269       .  A
O728        C738   1.270       .  A
O728        V735   1.931       .  S
O729        C739   1.260       .  A
O729        V735   1.890       .  S
O730        C740   1.262       .  A
O730        V735   1.870       .  S
O731        V736   1.890       .  S
O732        V736   1.879       .  S
O733        C738   1.272       .  A
O734        C737   1.272       .  A
O734        V736   1.933       .  S
C739        C789   1.448       .  S
C740        C785   1.438       .  S
O741        C751   1.270       .  A
O741        V749   1.914       .  S
O742        C752   1.274   1_565  A
O742       V1013   1.938       .  S
O743        C753   1.261       .  A
O743        V749   1.869       .  S
O744        C754   1.255       .  A
O744        V749   1.876       .  S
O745       C1018   1.263       .  A
O745        V750   1.869   1_565  S
O746       C1017   1.260   1_545  A
O746        V750   1.896       .  S
O747        C752   1.268       .  A
O747        V750   1.923       .  S
O748        C751   1.270       .  A
O748       V1014   1.933       .  S
V749       O1006   1.921       .  S
V749       V1014   2.084       .  T
V750       O1012   1.919   1_545  S
V750       V1013   2.087   1_545  T
C753       O1010   1.261       .  A
C753        C769   1.454       .  S
C754       O1009   1.265       .  A
C754        C774   1.447       .  S
O755        C765   1.270       .  A
O756        C766   1.265       .  A
O756        V763   1.908       .  S
O757        V763   1.876       .  S
O758        V763   1.896       .  S
O759        C768   1.262   1_556  A
O759        V764   1.878       .  S
O760        C767   1.258       .  A
O760        V764   1.891       .  S
O761        C766   1.273       .  A
O762        C765   1.271       .  A
O762        V764   1.931       .  S
C769       H1035   1.087   1_556  S
C770        H772   1.087       .  S
H771       C1033   1.087       .  S
C773        C774   1.329       .  D
C773       H1039   1.087       .  S
C774        H776   1.088       .  S
H775       C1037   1.088   1_545  S
C777        H779   1.087       .  S
C781        C782   1.327       .  D
C781        H783   1.088       .  S
C789        H791   1.087       .  S
C790        H792   1.086       .  S
C793        N794   1.365       .  A
C793        N798   1.371       .  A
C793        C897   1.499       .  S
N794        C795   1.366       .  A
C795        N796   1.366       .  A
C795        C828   1.495       .  S
N796        C797   1.368       .  A
C797        N798   1.370       .  A
C797        C884   1.502       .  S
C799        N800   1.364       .  A
C799        N804   1.357       .  A
C799        C898   1.475       .  S
N800        C801   1.366       .  A
C801        N802   1.372       .  A
C801        C870   1.504       .  S
N802        C803   1.373       .  A
C803        N804   1.356       .  A
C803        C857   1.485       .  S
C805        N806   1.379       .  A
C805        N810   1.381       .  A
C805        C883   1.521       .  S
N806        C807   1.374       .  A
C807        N808   1.351       .  A
C807        C869   1.488       .  S
N808        C809   1.350       .  A
C809        N810   1.373       .  A
C809        C844   1.498       .  S
C811        N812   1.365       .  A
C811        N816   1.378       .  A
C811        C858   1.497       .  S
N812        C813   1.356       .  A
C813        N814   1.347       .  A
C813        C843   1.469       .  S
N814        C815   1.353       .  A
C815        N816   1.376       .  A
C815        C827   1.486       .  S
O817        C827   1.269       .  A
O818        C828   1.270       .  A
O818        V825   1.926       .  S
O819        V825   1.860       .  S
O820        V825   1.891       .  S
O821        C830   1.268       .  A
O821        V826   1.888       .  S
O822        C829   1.263       .  A
O822        V826   1.905       .  S
O823        C828   1.268       .  A
O824        C827   1.266       .  A
O824        V826   1.925       .  S
C829        C922   1.447       .  S
C830        C918   1.445       .  S
O831        C973   1.262       .  A
O831        V839   1.880       .  S
O832        C974   1.256       .  A
O832        V839   1.880       .  S
O833        C843   1.262       .  A
O833        V971   1.901       .  S
O834        C844   1.271       .  A
O834        V839   1.913       .  S
O835        C844   1.268       .  A
O835        V972   1.933       .  S
O836        C843   1.267       .  A
O836        V840   1.902       .  S
O837        C842   1.255       .  A
O837        V840   1.883       .  S
O838        C841   1.263       .  A
O838        V840   1.875       .  S
V839        O965   1.926       .  S
V839        V972   2.087       .  T
V840        O967   1.916   1_554  S
V840        V971   2.091       .  T
C841        O963   1.259   1_554  A
C841        C909   1.456   1_554  S
C842        O964   1.262       .  A
C842        C913   1.438       .  S
O845        V853   1.872       .  S
O846        V853   1.885       .  S
O847        C857   1.270       .  A
O848        C858   1.268       .  A
O848        V853   1.907       .  S
O849        C858   1.271       .  A
O850        C857   1.264       .  A
O850        V854   1.910       .  S
O851        C856   1.264       .  A
O851        V854   1.873   1_545  S
O852        C855   1.260       .  A
O852        V854   1.896       .  S
C855        C902   1.453       .  S
C856        C905   1.456       .  S
O859        C869   1.270       .  A
O860        C870   1.274       .  A
O860        V867   1.939       .  S
O861        C871   1.252   1_655  A
O861        V867   1.865       .  S
O862        C872   1.255       .  A
O862        V867   1.838   1_455  S
O863        V868   1.902       .  S
O864        V868   1.905       .  S
O865        C870   1.268       .  A
O866        C869   1.266       .  A
O866        V868   1.922       .  S
C871        C921   1.448       .  S
C872        C917   1.440       .  S
O873        C883   1.270       .  A
O873        V881   1.927       .  S
O874        C884   1.271       .  A
O875        C885   1.265   1_565  A
O875        V881   1.880       .  S
O876        C886   1.261   1_565  A
O876        V881   1.899       .  S
O877        V882   1.879       .  S
O878        V882   1.893       .  S
O879        C884   1.269       .  A
O879        V882   1.924       .  S
O880        C883   1.276       .  A
C885        C901   1.445       .  S
C886        C906   1.462       .  S
O887        C897   1.270       .  A
O887       V1027   1.927       .  S
O888        C898   1.265       .  A
O888        V895   1.910       .  S
O889       C1031   1.263       .  A
O889        V895   1.873       .  S
O890       C1032   1.257       .  A
O890        V895   1.880       .  S
O891        C900   1.256       .  A
O891        V896   1.886       .  S
O892        C899   1.263       .  A
O892        V896   1.865       .  S
O893        C898   1.268       .  A
O893       V1028   1.914   1_554  S
O894        C897   1.270       .  A
O894        V896   1.926       .  S
V895       O1019   1.923   1_554  S
V895       V1028   2.082   1_554  T
V896       O1025   1.920       .  S
V896       V1027   2.082       .  T
C899       O1021   1.256       .  A
C899       C1046   1.442       .  S
C900       O1022   1.262       .  A
C900       C1042   1.439       .  S
C901       C1034   1.334   1_545  D
C902       C1033   1.341   1_565  D
C902        H904   1.087       .  S
C905        C906   1.343       .  D
C906        H908   1.087   1_545  S
C909        H911   1.087       .  S
C910       C1032   1.430       .  S
C910       H1044   1.089   1_655  S
H912       C1042   1.087   1_455  S
C913        C914   1.337       .  D
C913        H915   1.084       .  S
C914       C1031   1.448       .  S
C914       H1048   1.085   1_554  S
H916       C1046   1.087       .  S
C921        H923   1.088   1_455  S
C922        H924   1.086       .  S
C925        N926   1.371       .  A
C925        N930   1.369       .  A
C925       C1029   1.499       .  S
N926        C927   1.368       .  A
C927        N928   1.365       .  A
C927        C960   1.500       .  S
N928        C929   1.366       .  A
C929        N930   1.366       .  A
C929       C1016   1.495       .  S
C931        N932   1.372       .  A
C931        N936   1.369       .  A
C931       C1030   1.496       .  S
N932        C933   1.368       .  A
C933        N934   1.364       .  A
C933       C1002   1.498       .  S
N934        C935   1.362       .  A
C935        N936   1.364       .  A
C935        C989   1.491       .  S
C937        N938   1.368       .  A
C937        N942   1.367       .  A
C937       C1015   1.500       .  S
N938        C939   1.367       .  A
C939        N940   1.358       .  A
C939       C1001   1.477       .  S
N940        C941   1.356       .  A
C941        N942   1.368       .  A
C941        C976   1.477       .  S
C943        N944   1.365       .  A
C943        N948   1.367       .  A
C943        C990   1.509       .  S
N944        C945   1.369       .  A
C945        N946   1.370       .  A
C945        C975   1.498       .  S
N946        C947   1.371       .  A
C947        N948   1.370       .  A
C947        C959   1.504       .  S
O949        C959   1.274       .  A
O950        C960   1.269       .  A
O950        V957   1.925       .  S
O951        V957   1.866       .  S
O952        V957   1.875       .  S
O953        C962   1.264       .  A
O953        V958   1.876       .  S
O954        C961   1.259       .  A
O954        V958   1.892       .  S
O955        C960   1.271       .  A
O956        C959   1.267       .  A
O956        V958   1.915       .  S
C961       C1054   1.446       .  S
C962       C1050   1.447       .  S
O963        V971   1.892   1_556  S
O964        V971   1.861       .  S
O965        C975   1.270       .  A
O966        C976   1.264       .  A
O966        V971   1.906   1_556  S
O967        C976   1.268       .  A
O968        C975   1.269       .  A
O968        V972   1.922       .  S
O969        C974   1.264       .  A
O969        V972   1.875       .  S
O970        C973   1.262       .  A
O970        V972   1.895       .  S
C973       C1041   1.460       .  S
C974       C1045   1.447       .  S
O977        V985   1.858       .  S
O978        V985   1.877       .  S
O979        C989   1.269       .  A
O980        C990   1.273       .  A
O980        V985   1.935       .  S
O981        C990   1.269       .  A
O982        C989   1.268       .  A
O982        V986   1.922       .  S
O983        C988   1.263       .  A
O983        V986   1.873       .  S
O984        C987   1.258       .  A
O984        V986   1.890       .  S
C987       C1034   1.446       .  S
C988       C1037   1.444       .  S
O991       C1001   1.268       .  A
O992       C1002   1.266       .  A
O992        V999   1.907       .  S
O993       C1003   1.259   1_655  A
O993        V999   1.887       .  S
O994       C1004   1.263   1_655  A
O994        V999   1.867       .  S
O995       V1000   1.871       .  S
O996       V1000   1.874       .  S
O997       C1002   1.272       .  A
O998       C1001   1.265       .  A
O998       V1000   1.910       .  S
C1003      C1053   1.455       .  S
C1004      C1049   1.448       .  S
O1005      C1015   1.271       .  A
O1005      V1013   1.928       .  S
O1006      C1016   1.269       .  A
O1007      C1017   1.262       .  A
O1007      V1013   1.873       .  S
O1008      C1018   1.254       .  A
O1008      V1013   1.880       .  S
O1009      V1014   1.880       .  S
O1010      V1014   1.899       .  S
O1011      C1016   1.270       .  A
O1011      V1014   1.924       .  S
O1012      C1015   1.268       .  A
C1017      C1033   1.457   1_566  S
C1018      C1038   1.439       .  S
O1019      C1029   1.270       .  A
O1020      C1030   1.269       .  A
O1020      V1027   1.924       .  S
O1021      V1027   1.884       .  S
O1022      V1027   1.868       .  S
O1023      C1032   1.259   1_556  A
O1023      V1028   1.851       .  S
O1024      C1031   1.256   1_556  A
O1024      V1028   1.877       .  S
O1025      C1030   1.270       .  A
O1026      C1029   1.270       .  A
O1026      V1028   1.925       .  S
C1034      H1036   1.088       .  S
C1037      C1038   1.333       .  D
C1038      H1040   1.087       .  S
C1041      H1043   1.088       .  S
C1045      C1046   1.334       .  D
C1045      H1047   1.089       .  S
C1053      H1055   1.088   1_455  S
C1054      H1056   1.087       .  S
