geometry optimzed in LAMMPS
_audit_creation_date              2020-11-30 
_audit_creation_method            'lammps2cif' 
_symmetry_space_group_name_H-M    'P1' 
_symmetry_Int_Tables_number       1 
_symmetry_cell_setting            triclinic 
loop_ 
_symmetry_equiv_pos_as_xyz 
  x,y,z 
_cell_length_a                    44.26202908 
_cell_length_b                    44.42918780431738 
_cell_length_c                    44.346316338891995 
_cell_angle_alpha                 90.39645781235467 
_cell_angle_beta                  90.21342874727574 
_cell_angle_gamma                 90.04139291816061 
loop_ 
_atom_site_label 
_atom_site_type_symbol 
_atom_site_fract_x 
_atom_site_fract_y 
_atom_site_fract_z 
_atom_site_charge 
O1          O  0.73484763  0.67520799  0.76130275    -0.78500
C2          C  0.77463969  0.70742826  0.67414219     0.82600
O3          O  0.81043244  0.74782061  0.78756749    -0.79600
O4          O  0.76835382  0.80321523  0.70171395    -0.81100
O5          O  0.67459183  0.75971767  0.73078435    -0.80900
O6          O  0.69521015  0.70222055  0.77591294    -0.79500
Zn7        Zn  0.76347786  0.70543641  0.74232623     1.55700
O8          O  0.70195778  0.77251289  0.69091045    -0.80900
Cd9        Cd  0.70617088  0.74493047  0.76162947     1.59700
Cd10       Cd  0.77394744  0.77275092  0.77148612     1.59600
O11         O  0.70259846  0.77315886  0.79831575    -0.80900
O12         O  0.74782480  0.74619853  0.74494001    -1.91400
Cd13       Cd  0.74571966  0.76301853  0.70345670     1.59900
O14         O  0.74909427  0.79024727  0.80794613    -0.80800
O15         O  0.76487818  0.73429478  0.67200249    -0.79500
C16         C  0.81781016  0.72043770  0.78282093     0.83000
C17         C  0.70917984  0.67720462  0.77415216     0.82700
O18         O  0.77436455  0.69355578  0.69926253    -0.78400
C19         C  0.67666452  0.77035840  0.70426134     0.83500
O20         O  0.80172646  0.70327211  0.76616697    -0.78500
C21         C  0.72090803  0.78893627  0.81398726     0.83600
C22         C  0.78486651  0.81815521  0.71996965     0.84000
O23         O  0.79029875  0.80932323  0.74680311    -0.81000
C24         C  0.88478853  0.37936159  0.50293157    -0.02500
C25         C  0.11653503  0.37803959  0.50151029    -0.02500
C26         C  0.88913457  0.61352643  0.49662583    -0.02500
C27         C  0.12287100  0.60714727  0.49748012    -0.02500
C28         C  0.38993795  0.50065079  0.88846472    -0.02500
C29         C  0.37272670  0.50203565  0.11395876    -0.02500
C30         C  0.62294567  0.49728010  0.88842793    -0.02500
C31         C  0.60766862  0.49861057  0.11691337    -0.02500
C32         C  0.49479398  0.89139766  0.38193778    -0.02500
C33         C  0.49473818  0.12279848  0.38350334    -0.02500
C34         C  0.50084429  0.88706785  0.61455604    -0.02500
C35         C  0.50285772  0.11815347  0.61462098    -0.02500
O36         O  0.23480653  0.26194962  0.68240383    -0.78500
C37         C  0.32205881  0.21918249  0.71141142     0.82600
O38         O  0.20786922  0.18863684  0.75404964    -0.79600
O39         O  0.29832524  0.22203633  0.80579670    -0.81100
O40         O  0.27282509  0.32092725  0.76913079    -0.80900
O41         O  0.22618287  0.30373741  0.70887941    -0.79500
Zn42       Zn  0.25464513  0.23282670  0.71134064     1.55700
O43         O  0.31063767  0.29089652  0.78233934    -0.80900
Cd44       Cd  0.24070639  0.29142831  0.75154084     1.59700
Cd45       Cd  0.22730029  0.22372996  0.77944386     1.59600
O46         O  0.20328687  0.29610427  0.77810086    -0.80900
O47         O  0.25429997  0.24861934  0.75238986    -1.91400
Cd48       Cd  0.29616815  0.24852905  0.76853356     1.59900
O49         O  0.19283509  0.25099407  0.79732127    -0.80800
O50         O  0.32555118  0.22906043  0.73822510    -0.79500
C51         C  0.21267720  0.18028315  0.72684923     0.83000
C52         C  0.22406465  0.28850784  0.68448575     0.82700
O53         O  0.29676811  0.22080284  0.69765043    -0.78400
C54         C  0.29871284  0.31695944  0.78124480     0.83500
O55         O  0.23001302  0.19494825  0.70943592    -0.78500
C56         C  0.18683689  0.27894612  0.79397474     0.83600
C57         C  0.28049302  0.20623589  0.82160209     0.84000
O58         O  0.25242860  0.20432316  0.81492830    -0.81000
O59         O  0.25926533  0.68319291  0.23248302    -0.78500
C60         C  0.21549360  0.71466760  0.31680019     0.82600
O61         O  0.18418077  0.75187037  0.19966571    -0.79600
O62         O  0.21377879  0.80718006  0.29017718    -0.81100
O63         O  0.31531957  0.77073518  0.26551039    -0.80900
O64         O  0.29917767  0.71113317  0.22042368    -0.79500
Zn65       Zn  0.22856984  0.71268004  0.24918333     1.55700
O66         O  0.28553286  0.78629800  0.30281156    -0.80900
Cd67       Cd  0.28603140  0.75355482  0.23370923     1.59700
Cd68       Cd  0.21819104  0.77873041  0.21898929     1.59600
O69         O  0.29124272  0.78051157  0.19689865    -0.80900
O70         O  0.24336741  0.75380403  0.24761679    -1.91400
Cd71       Cd  0.24298193  0.77135374  0.28921920     1.59900
O72         O  0.24509750  0.79656000  0.18449027    -0.80800
O73         O  0.22613668  0.74112308  0.32024397    -0.79500
C74         C  0.17682310  0.72456879  0.20481561     0.83000
C75         C  0.28547565  0.68595376  0.22099406     0.82700
O76         O  0.21592957  0.70127073  0.29130439    -0.78400
C77         C  0.31158306  0.78385265  0.29083189     0.83500
O78         O  0.19154763  0.70838074  0.22331925    -0.78500
C79         C  0.27358018  0.79537355  0.17996512     0.83600
C80         C  0.19782485  0.82116469  0.27087462     0.84000
O81         O  0.19748632  0.81402537  0.24289304    -0.81000
O82         O  0.71661195  0.19582953  0.21012763    -0.78500
C83         C  0.78735471  0.18397151  0.27918632     0.82600
O84         O  0.68442253  0.25410866  0.29626707    -0.79600
O85         O  0.79114072  0.27766958  0.30555200    -0.81100
O86         O  0.78781921  0.27738135  0.19504655    -0.80900
O87         O  0.72617103  0.23435332  0.17999464    -0.79500
Zn88       Zn  0.72977401  0.21013714  0.25174582     1.55700
O89         O  0.81657182  0.26892587  0.23544602    -0.80900
Cd90       Cd  0.74482981  0.26571181  0.20913871     1.59700
Cd91       Cd  0.71976185  0.27859936  0.27761876     1.59600
O92         O  0.71791499  0.30306373  0.20546346    -0.80900
O93         O  0.74500999  0.25117615  0.25156701    -1.91400
Cd94       Cd  0.78734600  0.25172164  0.26699891     1.59900
O95         O  0.70173373  0.31366841  0.25201473    -0.80800
O96         O  0.80117030  0.20912539  0.27880205    -0.79500
C97         C  0.67736182  0.22639864  0.29327513     0.83000
C98         C  0.71582977  0.20796027  0.18419119     0.82700
O99         O  0.76029320  0.18144904  0.26958916    -0.78400
C100        C  0.81343134  0.27767048  0.20832871     0.83500
O101        O  0.69292385  0.20823351  0.27740341    -0.78500
C102        C  0.70280910  0.31918006  0.22380899     0.83600
C103        C  0.77270681  0.29358474  0.32076326     0.84000
O104        O  0.74503155  0.29652455  0.31321976    -0.81000
O105        O  0.71261235  0.21853671  0.69929052    -0.78500
C106        C  0.78095081  0.29138055  0.68715091     0.82600
O107        O  0.80407824  0.18741453  0.74882895    -0.79600
O108        O  0.80605998  0.29306729  0.78216208    -0.81100
O109        O  0.69928223  0.28482558  0.78655939    -0.80900
O110        O  0.68395380  0.22542010  0.73981771    -0.79500
Zn111      Zn  0.75424411  0.23310017  0.71135971     1.55700
O112        O  0.73705480  0.31582595  0.77475039    -0.80900
Cd113      Cd  0.71431422  0.24343896  0.77048322     1.59700
Cd114      Cd  0.78503791  0.22021978  0.77736906     1.59600
O115        O  0.71429246  0.21425228  0.80605720    -0.80900
O116        O  0.75589378  0.24579821  0.75330749    -1.91400
Cd117      Cd  0.76909944  0.28852811  0.75496724     1.59900
O118        O  0.76183722  0.19838205  0.81214989    -0.80800
O119        O  0.78193011  0.30384931  0.71307986    -0.79500
C120        C  0.79951848  0.18179801  0.72086887     0.83000
C121        C  0.68746899  0.21584036  0.71293301     0.82700
O122        O  0.76953926  0.26530552  0.68313197    -0.78400
C123        C  0.71142175  0.31085968  0.78669697     0.83500
O124        O  0.78140125  0.19778041  0.70542993    -0.78500
C125        C  0.73401868  0.19862165  0.81979159     0.83600
C126        C  0.82292648  0.27564571  0.79732447     0.84000
O127        O  0.81898439  0.24711486  0.79735140    -0.81000
C128        C  0.61803811  0.87695885  0.99997889    -0.02500
C129        C  0.62214467  0.10831787  0.99699949    -0.02500
C130        C  0.38554747  0.88429186  0.00068773    -0.02500
C131        C  0.39239605  0.11694639  0.00283274    -0.02500
O132        O  0.22231705  0.69404367  0.70633479    -0.78500
C133        C  0.29136940  0.67649480  0.77696535     0.82600
O134        O  0.19068926  0.75169411  0.79270433    -0.79600
O135        O  0.29975288  0.76969921  0.80321742    -0.81100
O136        O  0.29648111  0.77694880  0.69620373    -0.80900
O137        O  0.23713767  0.73194831  0.67742678    -0.79500
Zn138      Zn  0.23561251  0.70624578  0.74883036     1.55700
O139        O  0.32615733  0.76332824  0.73440667    -0.80900
Cd140      Cd  0.25386228  0.76261559  0.70807102     1.59700
Cd141      Cd  0.22828754  0.77462560  0.77589519     1.59600
O142        O  0.22671537  0.79990751  0.70443356    -0.80900
O143        O  0.25294828  0.74651369  0.74972743    -1.91400
Cd144      Cd  0.29564958  0.74426489  0.76449307     1.59900
O145        O  0.21212570  0.81122596  0.75097254    -0.80800
O146        O  0.30722152  0.70046479  0.77594559    -0.79500
C147        C  0.18288822  0.72417075  0.78953226     0.83000
C148        C  0.22384861  0.70678096  0.68065568     0.82700
O149        O  0.26415462  0.67571331  0.76741039    -0.78400
C150        C  0.32217601  0.77646042  0.70920328     0.83500
O151        O  0.19832967  0.70557123  0.77405862    -0.78500
C152        C  0.21264173  0.81695072  0.72280178     0.83600
C153        C  0.28259909  0.78683238  0.81864834     0.84000
O154        O  0.25481447  0.79085006  0.81175473    -0.81000
C155        C  0.88059307  0.99514025  0.61110697    -0.02500
C156        C  0.11380527  0.00011074  0.62201351    -0.02500
C157        C  0.88825874  0.00401902  0.37993466    -0.02500
C158        C  0.11909552  0.00096576  0.38817258    -0.02500
O159        O  0.77467299  0.69589964  0.29750843    -0.78500
C160        C  0.70700561  0.67824222  0.22615093     0.82600
O161        O  0.81050103  0.75200686  0.21363203    -0.79600
O162        O  0.70550752  0.77009350  0.19733081    -0.81100
O163        O  0.70027110  0.78097623  0.30494505    -0.80900
O164        O  0.75678287  0.73223171  0.32736039    -0.79500
Zn165      Zn  0.76331710  0.70748738  0.25487271     1.55700
O166        O  0.67369877  0.76753461  0.26421328    -0.80900
Cd167      Cd  0.74342538  0.76425156  0.29655342     1.59700
Cd168      Cd  0.77394410  0.77641154  0.23095660     1.59600
O169        O  0.77277193  0.79968522  0.30353354    -0.80900
O170        O  0.74710601  0.74829073  0.25457957    -1.91400
Cd171      Cd  0.70561572  0.74669552  0.23689294     1.59900
O172        O  0.79137839  0.81120214  0.25867258    -0.80800
O173        O  0.69273996  0.70316318  0.22552603    -0.79500
C174        C  0.81756517  0.72419792  0.21522826     0.83000
C175        C  0.77056167  0.70728088  0.32366357     0.82700
O176        O  0.73377592  0.67667392  0.23685486    -0.78400
C177        C  0.67574808  0.78087932  0.28968872     0.83500
O178        O  0.80133236  0.70567869  0.22991398    -0.78500
C179        C  0.78911593  0.81632853  0.28703099     0.83600
C180        C  0.72354771  0.78758263  0.18365363     0.84000
O181        O  0.74982379  0.79391985  0.19404252    -0.81000
C182        C  0.00037862  0.61496233  0.87530485    -0.02500
C183        C  0.99359993  0.61915757  0.10977473    -0.02500
C184        C  0.00530764  0.38496833  0.88604216    -0.02500
C185        C  0.99316458  0.38577717  0.11616532    -0.02500
O186        O  0.26596357  0.23947090  0.17420845    -0.78500
C187        C  0.17428626  0.27366361  0.20337238     0.82600
O188        O  0.28373170  0.31400991  0.25002811    -0.79600
O189        O  0.19767447  0.26707766  0.29909762    -0.81100
O190        O  0.23320993  0.17534326  0.25928862    -0.80900
O191        O  0.27692131  0.19842083  0.20076822    -0.79500
Zn192      Zn  0.24304230  0.26643026  0.20375644     1.55700
O193        O  0.19106180  0.20063621  0.26869736    -0.80900
Cd194      Cd  0.26166682  0.20847765  0.24308940     1.59700
Cd195      Cd  0.26851228  0.27589542  0.27257907     1.59600
O196        O  0.29896962  0.20699850  0.26995590    -0.80900
O197        O  0.24422188  0.24953893  0.24416713    -1.91400
Cd198      Cd  0.20243379  0.24466296  0.25922701     1.59900
O199        O  0.30584581  0.25267153  0.28990955    -0.80800
O200        O  0.17191280  0.26298899  0.22978151    -0.79500
C201        C  0.27905006  0.32260132  0.22300896     0.83000
C202        C  0.27852170  0.21372195  0.17668268     0.82700
O203        O  0.19982387  0.27488528  0.19009190    -0.78400
C204        C  0.20608768  0.17620051  0.26868311     0.83500
O205        O  0.26406590  0.30669683  0.20417093    -0.78500
C206        C  0.31378186  0.22522856  0.28654786     0.83600
C207        C  0.21425271  0.28356127  0.31587731     0.84000
O208        O  0.24149610  0.28956873  0.30872071    -0.81000
C209        C  0.09280574  0.29602277  0.18643937    -0.11400
C210        C  0.09713631  0.31877741  0.16521624     0.15200
C211        C  0.12648535  0.32477560  0.15459973     0.02100
C212        C  0.15107462  0.30910565  0.16671011    -0.15700
C213        C  0.14704638  0.28679750  0.18873469    -0.10500
C214        C  0.11722144  0.27952801  0.19789353     0.08800
C215        C  0.07045921  0.33570645  0.15451099     0.09800
S216        S  0.13399155  0.35231753  0.12587437    -0.24800
H217        H  0.17360520  0.31485223  0.15919319     0.20100
S218        S  0.10943681  0.24894435  0.22347591    -0.30500
H219        H  0.07007755  0.29126432  0.19402146     0.10400
C220        C  0.04941335  0.32234551  0.13502997     0.03600
C221        C  0.02484649  0.33917860  0.12494311    -0.12800
C222        C  0.02026245  0.36984949  0.13307091    -0.08500
C223        C  0.04024345  0.38188135  0.15593231     0.07100
C224        C  0.06551029  0.36501274  0.16500590    -0.13600
S225        S  0.05454981  0.28411533  0.12177169    -0.30500
H226        H  0.00972175  0.32861397  0.10904081     0.11300
S227        S  0.03597281  0.41651928  0.17733236    -0.27600
H228        H  0.08116436  0.37447726  0.18138407     0.08500
H229        H  0.07784257  0.24869899  0.21990176     0.27000
H230        H  0.02823219  0.28233189  0.10397158     0.21800
H231        H  0.00452504  0.41776461  0.17859534     0.27100
H232        H  0.10646401  0.34875774  0.11032047     0.15900
C233        C  0.01861428  0.40793756  0.97066736    -0.11400
C234        C  0.01240313  0.38074531  0.98476227     0.15200
C235        C  0.00944229  0.35443084  0.96724461     0.02100
C236        C  0.00959878  0.35664761  0.93579322    -0.15700
C237        C  0.01100439  0.38478360  0.92094723    -0.10500
C238        C  0.01980039  0.41012237  0.93924441     0.08800
C239        C  0.00827506  0.38133497  0.01769197     0.09800
S240        S  0.00371741  0.31766836  0.98332640    -0.24800
H241        H  0.00579327  0.33632091  0.92294189     0.20100
S242        S  0.03806914  0.44353304  0.92511086    -0.30500
H243        H  0.02347008  0.42743615  0.98467187     0.10400
C244        C  0.03144463  0.37363190  0.03769364     0.03600
C245        C  0.02650099  0.37616634  0.06876846    -0.12800
C246        C  0.99795625  0.38448749  0.08099998    -0.08500
C247        C  0.97552587  0.39442970  0.05983434     0.07100
C248        C  0.98103585  0.39232918  0.02882252    -0.13600
S249        S  0.06768618  0.36142698  0.02356034    -0.30500
H250        H  0.04569321  0.37224281  0.08321499     0.11300
S251        S  0.93846466  0.40732623  0.07071857    -0.27600
H252        H  0.96377105  0.39888203  0.01279485     0.08500
H253        H  0.03291119  0.46227569  0.95026439     0.27000
H254        H  0.08083714  0.35477500  0.05166223     0.21800
H255        H  0.92834964  0.41714657  0.04234884     0.27100
H256        H  0.98932168  0.32727651  0.00984144     0.15900
C257        C  0.97195845  0.53634076  0.13466887    -0.11400
C258        C  0.99128588  0.51903563  0.11643579     0.15200
C259        C  0.00735148  0.53423547  0.09380831     0.02100
C260        C  0.00921968  0.56556716  0.09476889    -0.15700
C261        C  0.99011868  0.58384907  0.11312719    -0.10500
C262        C  0.96823512  0.56752293  0.13046724     0.08800
C263        C  0.99241790  0.48541331  0.12009875     0.09800
S264        S  0.02354204  0.51573127  0.06124688    -0.24800
H265        H  0.02565049  0.57547930  0.08003401     0.20100
S266        S  0.93285453  0.58267834  0.14402898    -0.30500
H267        H  0.95816490  0.52516790  0.15128008     0.10400
C268        C  0.01936052  0.46870602  0.11782686     0.03600
C269        C  0.01786207  0.43725374  0.11544970    -0.12800
C270        C  0.99129890  0.42069201  0.12212773    -0.08500
C271        C  0.96498697  0.43825875  0.12967089     0.07100
C272        C  0.96571800  0.46967334  0.12619302    -0.13600
S273        S  0.05593816  0.48674509  0.12066761    -0.30500
H274        H  0.03833925  0.42513321  0.11002100     0.11300
S275        S  0.92877221  0.42358513  0.14148033    -0.27600
H276        H  0.94477745  0.48208632  0.12797240     0.08500
H277        H  0.91763704  0.55522699  0.14832351     0.27000
H278        H  0.07346966  0.46035855  0.11980848     0.21800
H279        H  0.91849510  0.44970688  0.15636018     0.27100
H280        H  0.00314745  0.49143409  0.06092214     0.15900
C281        C  0.97654803  0.53155919  0.85228609    -0.11400
C282        C  0.00118198  0.51547026  0.86356334     0.15200
C283        C  0.02517758  0.53147800  0.87687800     0.02100
C284        C  0.02385125  0.56294382  0.87887207    -0.15700
C285        C  0.99903545  0.58007043  0.86811101    -0.10500
C286        C  0.97408194  0.56291959  0.85580053     0.08800
C287        C  0.99965238  0.48191932  0.86472593     0.09800
S288        S  0.05733937  0.51198265  0.89250532    -0.24800
H289        H  0.04255397  0.57449687  0.88931450     0.20100
S290        S  0.93644644  0.57632724  0.84767728    -0.30500
H291        H  0.95770009  0.51902840  0.84279499     0.10400
C292        C  0.97824180  0.46726736  0.88275192     0.03600
C293        C  0.97959543  0.43598062  0.88589325    -0.12800
C294        C  0.00301253  0.41810851  0.87335601    -0.08500
C295        C  0.02154036  0.43283122  0.85114789     0.07100
C296        C  0.02014736  0.46439653  0.84825757    -0.13600
S297        S  0.95057877  0.48844993  0.90405091    -0.30500
H298        H  0.96293743  0.42559691  0.89990987     0.11300
S299        S  0.04622233  0.41525450  0.82373795    -0.27600
H300        H  0.03530751  0.47561081  0.83280043     0.08500
H301        H  0.93199012  0.59036377  0.87571054     0.27000
H302        H  0.93961161  0.46444468  0.92140862     0.21800
H303        H  0.03140341  0.38774082  0.82038923     0.27100
H304        H  0.07131627  0.53710060  0.90609357     0.15900
C305        C  0.01983680  0.63446953  0.96014439    -0.11400
C306        C  0.99847597  0.61729843  0.97572234     0.15200
C307        C  0.97956881  0.59804354  0.95845956     0.02100
C308        C  0.98031189  0.59931907  0.92691307    -0.15700
C309        C  0.00264822  0.61568745  0.91088574    -0.10500
C310        C  0.02514601  0.63030592  0.92931320     0.08800
C311        C  0.99714185  0.61971599  0.00958398     0.09800
S312        S  0.95526132  0.56985329  0.97463320    -0.24800
H313        H  0.96383134  0.58605043  0.91475398     0.20100
S314        S  0.06329100  0.64007669  0.91889984    -0.30500
H315        H  0.03450890  0.64963073  0.97258177     0.10400
C316        C  0.02347779  0.62142091  0.02762620     0.03600
C317        C  0.02096533  0.62677315  0.05868592    -0.12800
C318        C  0.99313967  0.62366935  0.07430569    -0.08500
C319        C  0.96711006  0.61789101  0.05587926     0.07100
C320        C  0.96913965  0.61988243  0.02430951    -0.13600
S321        S  0.06046763  0.61250368  0.01257212    -0.30500
H322        H  0.04188883  0.62888190  0.07101185     0.11300
S323        S  0.93126290  0.60611292  0.07129281    -0.27600
H324        H  0.94866562  0.61945968  0.01095515     0.08500
H325        H  0.06847875  0.61496975  0.90045421     0.27000
H326        H  0.07576113  0.60927074  0.04022250     0.21800
H327        H  0.91712358  0.59822762  0.04389268     0.27100
H328        H  0.97466652  0.56337213  0.99893720     0.15900
C329        C  0.89571839  0.71653729  0.17871332    -0.11400
C330        C  0.89508217  0.68632346  0.16935909     0.15200
C331        C  0.86898415  0.66899486  0.17483846     0.02100
C332        C  0.84444279  0.68195758  0.18988084    -0.15700
C333        C  0.84468575  0.71233317  0.19913819    -0.10500
C334        C  0.87084023  0.72976623  0.19323466     0.08800
C335        C  0.92214344  0.67293501  0.15483987     0.09800
S336        S  0.86566479  0.63008934  0.16341769    -0.24800
H337        H  0.82469777  0.66815561  0.19395833     0.20100
S338        S  0.87468096  0.76830483  0.20532348    -0.30500
H339        H  0.91582414  0.72986158  0.17478819     0.10400
C340        C  0.92778352  0.67638299  0.12398717     0.03600
C341        C  0.95152753  0.66034348  0.11053359    -0.12800
C342        C  0.96890141  0.63873249  0.12651551    -0.08500
C343        C  0.96570448  0.63934444  0.15872723     0.07100
C344        C  0.94187552  0.65554549  0.17208236    -0.13600
S345        S  0.90406499  0.70057418  0.10145969    -0.30500
H346        H  0.95615465  0.66502411  0.08722525     0.11300
S347        S  0.98968192  0.61783328  0.18363251    -0.27600
H348        H  0.93791635  0.65396148  0.19609792     0.08500
H349        H  0.85255138  0.77845538  0.18492926     0.27000
H350        H  0.91683537  0.69332447  0.07333286     0.21800
H351        H  0.98040064  0.63118282  0.21091366     0.27100
H352        H  0.88250304  0.63278696  0.13677041     0.15900
C353        C  0.19041880  0.09500487  0.29198015    -0.11400
C354        C  0.16870791  0.09951624  0.31451808     0.15200
C355        C  0.15802263  0.12886485  0.32032740     0.02100
C356        C  0.16995723  0.15308784  0.30433278    -0.15700
C357        C  0.19215595  0.14889624  0.28204279    -0.10500
C358        C  0.20187383  0.11918328  0.27538132     0.08800
C359        C  0.15850018  0.07356068  0.33264405     0.09800
S360        S  0.12961531  0.13696409  0.34832687    -0.24800
H361        H  0.16221160  0.17556335  0.30994289     0.20100
S362        S  0.22823176  0.11034517  0.24574582    -0.30500
H363        H  0.19848619  0.07242844  0.28730104     0.10400
C364        C  0.13995539  0.05104833  0.32041129     0.03600
C365        C  0.12948448  0.02803768  0.33901314    -0.12800
C366        C  0.13608171  0.02677638  0.37045628    -0.08500
C367        C  0.15751446  0.04864688  0.38178966     0.07100
C368        C  0.16750300  0.07178533  0.36276497    -0.13600
S369        S  0.12810530  0.05250984  0.28140784    -0.30500
H370        H  0.11432812  0.01151879  0.32922694     0.11300
S371        S  0.17679313  0.04696404  0.41791179    -0.27600
H372        H  0.18321341  0.08859235  0.37113889     0.08500
H373        H  0.21640397  0.13158828  0.22549159     0.27000
H374        H  0.11099467  0.02581917  0.28120907     0.21800
H375        H  0.18717310  0.07687674  0.41917619     0.27100
H376        H  0.11387435  0.10961192  0.34517306     0.15900
C377        C  0.87440155  0.91823076  0.36092102    -0.11400
C378        C  0.85201955  0.91968611  0.33864459     0.15200
C379        C  0.84103674  0.94797114  0.32997049     0.02100
C380        C  0.85288332  0.97404401  0.34319237    -0.15700
C381        C  0.87634754  0.97364339  0.36520905    -0.10500
C382        C  0.88659809  0.94443169  0.37438511     0.08800
C383        C  0.83872038  0.89144081  0.32634169     0.09800
S384        S  0.81136620  0.95261085  0.30228910    -0.24800
H385        H  0.84207535  0.99468682  0.33658003     0.20100
S386        S  0.91507897  0.93928466  0.40329243    -0.30500
H387        H  0.88205207  0.89624490  0.36801543     0.10400
C388        C  0.84607062  0.88025248  0.29750412     0.03600
C389        C  0.82972327  0.85579031  0.28529843    -0.12800
C390        C  0.80599238  0.84209403  0.30133907    -0.08500
C391        C  0.79951824  0.85319419  0.33086819     0.07100
C392        C  0.81613317  0.87724306  0.34295067    -0.13600
S393        S  0.87625313  0.89727566  0.27630915    -0.30500
H394        H  0.83542905  0.84742175  0.26306689     0.11300
S395        S  0.76934642  0.83937250  0.35412735    -0.27600
H396        H  0.81036494  0.88602026  0.36506634     0.08500
H397        H  0.91992372  0.90829570  0.39885164     0.27000
H398        H  0.87555252  0.87686068  0.25192945     0.21800
H399        H  0.74792851  0.84203910  0.33092896     0.27100
H400        H  0.79544532  0.92608885  0.30870178     0.15900
C401        C  0.96997709  0.03784559  0.38390931    -0.11400
C402        C  0.98705703  0.01521361  0.37027186     0.15200
C403        C  0.97205095  0.99132568  0.35557169     0.02100
C404        C  0.94068440  0.98868397  0.35781570    -0.15700
C405        C  0.92299566  0.00959492  0.37433032    -0.10500
C406        C  0.93836975  0.03606323  0.38531317     0.08800
C407        C  0.02003073  0.01408283  0.37626767     0.09800
S408        S  0.99193377  0.96285098  0.33427541    -0.24800
H409        H  0.93041012  0.96989207  0.34616632     0.20100
S410        S  0.91939026  0.06644111  0.40496672    -0.30500
H411        H  0.98166941  0.05614715  0.39523251     0.10400
C412        C  0.04035141  0.03603514  0.36625867     0.03600
C413        C  0.07133371  0.03276167  0.37244989    -0.12800
C414        C  0.08349776  0.00651826  0.38630777    -0.08500
C415        C  0.06162755  0.98663997  0.39951853     0.07100
C416        C  0.03079090  0.99053598  0.39380435    -0.13600
S417        S  0.02709206  0.06776351  0.34467337    -0.30500
H418        H  0.08567018  0.05126371  0.36622163     0.11300
S419        S  0.07110059  0.95448701  0.42217875    -0.27600
H420        H  0.01464340  0.97449124  0.40254153     0.08500
H421        H  0.94268451  0.08784485  0.40253701     0.27000
H422        H  0.05568834  0.07889291  0.33658485     0.21800
H423        H  0.04304659  0.95120103  0.43662291     0.27100
H424        H  0.01703527  0.98087100  0.32718798     0.15900
C425        C  0.13324929  0.97791576  0.47279196    -0.11400
C426        C  0.12592729  0.00483141  0.48790873     0.15200
C427        C  0.12061110  0.03048939  0.47008046     0.02100
C428        C  0.11690776  0.02722554  0.43887624    -0.15700
C429        C  0.12538091  0.00069768  0.42300114    -0.10500
C430        C  0.13504888  0.97574444  0.44126614     0.08800
C431        C  0.12398008  0.00492478  0.52187220     0.09800
S432        S  0.12191147  0.06850562  0.48475555    -0.24800
H433        H  0.10993304  0.04685346  0.42625699     0.20100
S434        S  0.14970122  0.93975753  0.42852672    -0.30500
H435        H  0.13758581  0.95777463  0.48568925     0.10400
C436        C  0.10103806  0.02007595  0.53793790     0.03600
C437        C  0.10216301  0.02093603  0.56952695    -0.12800
C438        C  0.12003727  0.00062400  0.58672522    -0.08500
C439        C  0.13927042  0.98116503  0.56935313     0.07100
C440        C  0.14364821  0.98657103  0.53854189    -0.13600
S441        S  0.06756735  0.03432144  0.51931564    -0.30500
H442        H  0.08666788  0.03587227  0.58094873     0.11300
S443        S  0.15641158  0.94670664  0.58176118    -0.27600
H444        H  0.16099462  0.97385416  0.52696192     0.08500
H445        H  0.12476234  0.93005362  0.41169474     0.27000
H446        H  0.05052664  0.03994893  0.54548560     0.21800
H447        H  0.12875758  0.93410749  0.59071564     0.27100
H448        H  0.14019404  0.06177939  0.50981992     0.15900
C449        C  0.88128148  0.96961985  0.52606509    -0.11400
C450        C  0.86821415  0.99427149  0.51178105     0.15200
C451        C  0.85569017  0.01736884  0.52950298     0.02100
C452        C  0.85775221  0.01591868  0.56100526    -0.15700
C453        C  0.87338120  0.99241040  0.57623336    -0.10500
C454        C  0.88509412  0.96854906  0.55735259     0.08800
C455        C  0.87258290  0.99703620  0.47873687     0.09800
S456        S  0.83858342  0.05045660  0.51337452    -0.24800
H457        H  0.84891467  0.03504735  0.57313767     0.20100
S458        S  0.90879520  0.93738302  0.56901847    -0.30500
H459        H  0.89101911  0.95192645  0.51220616     0.10400
C460        C  0.90167923  0.00127182  0.46717348     0.03600
C461        C  0.90597656  0.00212496  0.43608394    -0.12800
C462        C  0.88174459  0.00127349  0.41495021    -0.08500
C463        C  0.85222113  0.99606070  0.42724491     0.07100
C464        C  0.84820748  0.99415830  0.45875574    -0.13600
S465        S  0.93394228  0.00567658  0.49209360    -0.30500
H466        H  0.92910131  0.00238915  0.42888699     0.11300
S467        S  0.81897267  0.99181306  0.40371065    -0.27600
H468        H  0.82598434  0.99020756  0.46803379     0.08500
H469        H  0.89794528  0.93202152  0.59781061     0.27000
H470        H  0.95486652  0.01475983  0.47014960     0.21800
H471        H  0.79728916  0.99211514  0.42680619     0.27100
H472        H  0.85771177  0.05245949  0.48824430     0.15900
C473        C  0.02624871  0.01557131  0.63303705    -0.11400
C474        C  0.01394273  0.99000891  0.61930297     0.15200
C475        C  0.03338640  0.96875789  0.60614032     0.02100
C476        C  0.06461573  0.97291245  0.60842788    -0.15700
C477        C  0.07803771  0.99805422  0.62342021    -0.10500
C478        C  0.05744392  0.02113328  0.63353829     0.08800
C479        C  0.98064757  0.98876276  0.61600327     0.09800
S480        S  0.02003956  0.93618336  0.58548407    -0.24800
H481        H  0.07898292  0.95617443  0.59793023     0.20100
S482        S  0.06774397  0.05982074  0.64208957    -0.30500
H483        H  0.01077906  0.03233678  0.64179213     0.10400
C484        C  0.96264659  0.96886333  0.63246785     0.03600
C485        C  0.93106776  0.97070352  0.63014382    -0.12800
C486        C  0.91625884  0.99314964  0.61271630    -0.08500
C487        C  0.93546868  0.01257069  0.59538276     0.07100
C488        C  0.96690954  0.00993211  0.59740935    -0.13600
S489        S  0.97989938  0.94173180  0.65733327    -0.30500
H490        H  0.91828642  0.95432475  0.64245563     0.11300
S491        S  0.92142911  0.04293081  0.57212718    -0.27600
H492        H  0.98122987  0.02530485  0.58509611     0.08500
H493        H  0.03878418  0.07282361  0.64202309     0.27000
H494        H  0.95300176  0.92940879  0.66870708     0.21800
H495        H  0.94784199  0.04774837  0.55528189     0.27100
H496        H  0.99241305  0.94845599  0.57590389     0.15900
C497        C  0.16352966  0.88759827  0.71310625    -0.11400
C498        C  0.17050952  0.89563041  0.68334863     0.15200
C499        C  0.19105323  0.87769081  0.66696513     0.02100
C500        C  0.20456054  0.85284803  0.68067416    -0.15700
C501        C  0.19728344  0.84418189  0.71031311    -0.10500
C502        C  0.17586780  0.86175455  0.72640337     0.08800
C503        C  0.15591928  0.92252102  0.66970366     0.09800
S504        S  0.20027432  0.88474224  0.62808964    -0.24800
H505        H  0.22065021  0.83988164  0.66761027     0.20100
S506        S  0.16203674  0.85195834  0.76319288    -0.30500
H507        H  0.14760860  0.90114773  0.72579788     0.10400
C508        C  0.12462014  0.92393516  0.66511954     0.03600
C509        C  0.11193528  0.94926905  0.65143089    -0.12800
C510        C  0.12957069  0.97291116  0.63886629    -0.08500
C511        C  0.16152721  0.97153371  0.64530658     0.07100
C512        C  0.17376677  0.94677910  0.66065494    -0.13600
S513        S  0.10039052  0.89309989  0.67608100    -0.30500
H514        H  0.08777167  0.95026496  0.65198508     0.11300
S515        S  0.18922860  0.99959372  0.63513087    -0.27600
H516        H  0.19788834  0.94598633  0.66490734     0.08500
H517        H  0.15617427  0.82179345  0.75516391     0.27000
H518        H  0.07391504  0.90325341  0.66174054     0.21800
H519        H  0.17780723  0.00601108  0.60652723     0.27100
H520        H  0.17073338  0.89291969  0.61979457     0.15900
C521        C  0.10080190  0.70915435  0.80924671    -0.11400
C522        C  0.10388547  0.68425976  0.82842005     0.15200
C523        C  0.13320330  0.67421892  0.83612363     0.02100
C524        C  0.15843394  0.68819250  0.82357231    -0.15700
C525        C  0.15536499  0.71269692  0.80407744    -0.10500
C526        C  0.12618447  0.72348062  0.79703286     0.08800
C527        C  0.07646977  0.66751585  0.83800091     0.09800
S528        S  0.13998433  0.64354992  0.86167415    -0.24800
H529        H  0.18078002  0.67979279  0.82901252     0.20100
S530        S  0.11974373  0.75412195  0.77132562    -0.30500
H531        H  0.07843596  0.71674903  0.80284004     0.10400
C532        C  0.05393647  0.68079081  0.85581573     0.03600
C533        C  0.02967321  0.66317908  0.86573567    -0.12800
C534        C  0.02738975  0.63176428  0.85960019    -0.08500
C535        C  0.04861129  0.61981085  0.83806806     0.07100
C536        C  0.07300500  0.63757550  0.82873140    -0.13600
S537        S  0.05725814  0.71947009  0.86828021    -0.30500
H538        H  0.01332018  0.67360955  0.88047384     0.11300
S539        S  0.04698920  0.58381824  0.81882599    -0.27600
H540        H  0.08953592  0.62802559  0.81342459     0.08500
H541        H  0.14416861  0.74769897  0.75216186     0.27000
H542        H  0.03004902  0.72080479  0.88451785     0.21800
H543        H  0.01638139  0.58485141  0.81102803     0.27100
H544        H  0.11493857  0.64970292  0.87999144     0.15900
C545        C  0.35152135  0.13020743  0.08052925    -0.11400
C546        C  0.34834399  0.16148076  0.08001855     0.15200
C547        C  0.36442217  0.17803026  0.05848386     0.02100
C548        C  0.38006880  0.16271838  0.03582946    -0.15700
C549        C  0.37933883  0.13089702  0.03289527    -0.10500
C550        C  0.36824520  0.11478809  0.05850776     0.08800
C551        C  0.33030923  0.17604940  0.10400005     0.09800
S552        S  0.36550464  0.21863831  0.05819322    -0.24800
H553        H  0.39137049  0.17602496  0.01905847     0.20100
S554        S  0.37946045  0.07688698  0.06820132    -0.30500
H555        H  0.34183153  0.11797371  0.09919634     0.10400
C556        C  0.30252874  0.19041139  0.09798770     0.03600
C557        C  0.28615785  0.20328316  0.12193317    -0.12800
C558        C  0.29690818  0.20157720  0.15170773    -0.08500
C559        C  0.32512704  0.18763838  0.15737280     0.07100
C560        C  0.34118026  0.17474435  0.13360362    -0.13600
S561        S  0.28742756  0.19122506  0.06010320    -0.30500
H562        H  0.26462122  0.21399100  0.11762389     0.11300
S563        S  0.34266120  0.18651930  0.19418236    -0.27600
H564        H  0.36267327  0.16395786  0.13813120     0.08500
H565        H  0.35508712  0.07060596  0.08744142     0.27000
H566        H  0.26034851  0.20618178  0.06721142     0.21800
H567        H  0.33337715  0.21557656  0.20290985     0.27100
H568        H  0.36166833  0.22285678  0.08937570     0.15900
C569        C  0.32921871  0.86940334  0.93275528    -0.11400
C570        C  0.33604414  0.83954455  0.92583025     0.15200
C571        C  0.35656723  0.82390876  0.94413516     0.02100
C572        C  0.37088373  0.83896775  0.96800034    -0.15700
C573        C  0.36692272  0.87015678  0.97371755    -0.10500
C574        C  0.34320975  0.88474723  0.95683227     0.08800
C575        C  0.32184287  0.82585398  0.89875282     0.09800
S576        S  0.36603244  0.78487148  0.93791476    -0.24800
H577        H  0.38633362  0.82616215  0.98174510     0.20100
S578        S  0.32676617  0.92103128  0.96623369    -0.30500
H579        H  0.31215543  0.88052381  0.91929101     0.10400
C580        C  0.29160774  0.81585727  0.89878111     0.03600
C581        C  0.27884449  0.80405722  0.87212152    -0.12800
C582        C  0.29575311  0.80221686  0.84540884    -0.08500
C583        C  0.32576534  0.81338723  0.84537588     0.07100
C584        C  0.33854302  0.82456814  0.87206399    -0.13600
S585        S  0.26969397  0.81736438  0.93302347    -0.30500
H586        H  0.25592516  0.79553618  0.87225240     0.11300
S587        S  0.34856408  0.81538374  0.81179540    -0.27600
H588        H  0.36151709  0.83303829  0.87189260     0.08500
H589        H  0.31051475  0.92576442  0.93937934     0.27000
H590        H  0.24310168  0.80478598  0.92086765     0.21800
H591        H  0.32436094  0.82213919  0.79232013     0.27100
H592        H  0.33855485  0.77639835  0.92434795     0.15900
C593        C  0.39418000  0.96829263  0.97627461    -0.11400
C594        C  0.38437600  0.98399229  0.00177643     0.15200
C595        C  0.37444796  0.96780093  0.02694460     0.02100
C596        C  0.37421751  0.93634055  0.02602610    -0.15700
C597        C  0.38419782  0.91964174  0.00049658    -0.10500
C598        C  0.39480809  0.93674503  0.97529459     0.08800
C599        C  0.38627490  0.01729707  0.00177639     0.09800
S600        S  0.36296070  0.98601393  0.06150431    -0.24800
H601        H  0.36768929  0.92531855  0.04656265     0.20100
S602        S  0.40723408  0.91957399  0.94036480    -0.30500
H603        H  0.40152360  0.98109219  0.95693883     0.10400
C604        C  0.41437384  0.03172469  0.00205728     0.03600
C605        C  0.41581855  0.06306716  0.00105424    -0.12800
C606        C  0.38963588  0.08159296  0.00215056    -0.08500
C607        C  0.36101961  0.06630418  0.00171780     0.07100
C608        C  0.35992638  0.03460580  0.00125191    -0.13600
S609        S  0.44896576  0.01032071  0.00430376    -0.30500
H610        H  0.43806582  0.07236221  0.99854356     0.11300
S611        S  0.32539163  0.08618413  0.00365904    -0.27600
H612        H  0.33839903  0.02303553  0.00093981     0.08500
H613        H  0.42118417  0.94509442  0.92798458     0.27000
H614        H  0.46530227  0.03287937  0.01969273     0.21800
H615        H  0.30625828  0.06099454  0.00550279     0.27100
H616        H  0.38469749  0.00903694  0.06029035     0.15900
C617        C  0.54411739  0.15027818  0.00661457    -0.11400
C618        C  0.52352691  0.12701702  0.00122406     0.15200
C619        C  0.53451481  0.09828708  0.99400587     0.02100
C620        C  0.56548156  0.09292285  0.99384260    -0.15700
C621        C  0.58735586  0.11605413  0.99767555    -0.10500
C622        C  0.57550720  0.14558443  0.00464830     0.08800
C623        C  0.49065989  0.13212502  0.00512755     0.09800
S624        S  0.51000364  0.06690671  0.98532669    -0.24800
H625        H  0.57155020  0.06973019  0.99125558     0.20100
S626        S  0.59790878  0.17895920  0.01167405    -0.30500
H627        H  0.53559491  0.17242577  0.01243614     0.10400
C628        C  0.47526582  0.11992192  0.02975021     0.03600
C629        C  0.44369999  0.11841570  0.02907042    -0.12800
C630        C  0.42649790  0.12758538  0.00360285    -0.08500
C631        C  0.44236285  0.14548616  0.98188644     0.07100
C632        C  0.47412356  0.14623157  0.98235944    -0.13600
S633        S  0.49598879  0.10441769  0.06121957    -0.30500
H634        H  0.43250953  0.10719901  0.04741291     0.11300
S635        S  0.42558804  0.16824770  0.95283238    -0.27600
H636        H  0.48617157  0.15725866  0.96428279     0.08500
H637        H  0.61972288  0.17356410  0.98963617     0.27000
H638        H  0.47087943  0.09366745  0.07724578     0.21800
H639        H  0.40351205  0.18130444  0.97123330     0.27100
H640        H  0.48761568  0.08387665  0.97068180     0.15900
C641        C  0.68424749  0.79605739  0.10812856    -0.11400
C642        C  0.68637448  0.82716620  0.10344973     0.15200
C643        C  0.70284036  0.84502934  0.12433744     0.02100
C644        C  0.71581527  0.83157294  0.14983637    -0.15700
C645        C  0.71294767  0.80055027  0.15484797    -0.10500
C646        C  0.69761394  0.78251391  0.13328819     0.08800
C647        C  0.66997900  0.84016692  0.07726154     0.09800
S648        S  0.70781590  0.88504939  0.11991325    -0.24800
H649        H  0.72756178  0.84551863  0.16624818     0.20100
S650        S  0.69549786  0.74204199  0.13727253    -0.30500
H651        H  0.67169245  0.78242704  0.09208201     0.10400
C652        C  0.67701300  0.83179743  0.04756758     0.03600
C653        C  0.66000675  0.84331633  0.02362336    -0.12800
C654        C  0.63508395  0.86307729  0.02787569    -0.08500
C655        C  0.62907855  0.87214603  0.05842936     0.07100
C656        C  0.64616434  0.86018195  0.08232332    -0.13600
S657        S  0.70903261  0.80772969  0.03974218    -0.30500
H658        H  0.66806688  0.83786374  0.00146690     0.11300
S659        S  0.59847548  0.89718693  0.06855905    -0.27600
H660        H  0.64064981  0.86605794  0.10538816     0.08500
H661        H  0.67965516  0.73604875  0.11033941     0.27000
H662        H  0.70250182  0.80230427  0.00910404     0.21800
H663        H  0.60775081  0.90331251  0.09834744     0.27100
H664        H  0.70695248  0.88487821  0.08821223     0.15900
C665        C  0.47208114  0.88497093  0.02006328    -0.11400
C666        C  0.48499520  0.87119474  0.99481637     0.15200
C667        C  0.46582874  0.86012240  0.97189581     0.02100
C668        C  0.43454659  0.86452000  0.97397491    -0.15700
C669        C  0.42067194  0.87825911  0.99945569    -0.10500
C670        C  0.44067505  0.88841160  0.02300155     0.08800
C671        C  0.51857250  0.86895892  0.99357376     0.09800
S672        S  0.47969969  0.83999479  0.93926462    -0.24800
H673        H  0.42152572  0.85769320  0.95455401     0.20100
S674        S  0.42727419  0.90396256  0.05831989    -0.30500
H675        H  0.48697767  0.89286107  0.03785807     0.10400
C676        C  0.53572929  0.88475370  0.97233093     0.03600
C677        C  0.56734639  0.88360576  0.97384006    -0.12800
C678        C  0.58311458  0.86966627  0.99802011    -0.08500
C679        C  0.56527922  0.85131027  0.01778714     0.07100
C680        C  0.53354546  0.85190621  0.01540052    -0.13600
S681        S  0.51760012  0.90902372  0.94516605    -0.30500
H682        H  0.58003953  0.89652815  0.95763788     0.11300
S683        S  0.58049218  0.82535957  0.04530222    -0.27600
H684        H  0.51995820  0.83925817  0.03114228     0.08500
H685        H  0.45516645  0.91422963  0.06968516     0.27000
H686        H  0.54393343  0.91820051  0.93012722     0.21800
H687        H  0.55440229  0.80772725  0.04920864     0.27100
H688        H  0.50572632  0.82829464  0.95312437     0.15900
C689        C  0.62196628  0.02252365  0.97446131    -0.11400
C690        C  0.63328924  0.00922531  0.00059268     0.15200
C691        C  0.64596568  0.02765893  0.02315145     0.02100
C692        C  0.64459281  0.05897768  0.02025314    -0.15700
C693        C  0.62839260  0.07310980  0.99643243    -0.10500
C694        C  0.62005756  0.05389918  0.97155378     0.08800
C695        C  0.63005435  0.97619945  0.00384157     0.09800
S696        S  0.66322271  0.01273334  0.05680036    -0.24800
H697        H  0.65528840  0.07188748  0.03797678     0.20100
S698        S  0.60455033  0.06801695  0.93655570    -0.30500
H699        H  0.61351338  0.00796649  0.95665132     0.10400
C700        C  0.60149959  0.96334766  0.00808743     0.03600
C701        C  0.59842804  0.93205827  0.00805463    -0.12800
C702        C  0.62321406  0.91220687  0.00335356    -0.08500
C703        C  0.65261231  0.92595938  0.00279639     0.07100
C704        C  0.65536358  0.95752832  0.00207148    -0.13600
S705        S  0.56877639  0.98696481  0.01441261    -0.30500
H706        H  0.57623704  0.92348755  0.01288082     0.11300
S707        S  0.68720881  0.90434439  0.00101850    -0.27600
H708        H  0.67734805  0.96788857  0.99958486     0.08500
H709        H  0.60207411  0.04045015  0.92097452     0.27000
H710        H  0.54695804  0.96392304  0.01437776     0.21800
H711        H  0.70757541  0.92831154  0.00533972     0.27100
H712        H  0.64399409  0.98772238  0.05956709     0.15900
C713        C  0.92560775  0.34432048  0.88239738    -0.11400
C714        C  0.92348875  0.33899855  0.85140092     0.15200
C715        C  0.94475077  0.35241765  0.83229098     0.02100
C716        C  0.96922589  0.36804340  0.84479582    -0.15700
C717        C  0.97402854  0.37086070  0.87635629    -0.10500
C718        C  0.94938084  0.36106087  0.89523280     0.08800
C719        C  0.89774093  0.32094129  0.83967276     0.09800
S720        S  0.94247316  0.34987174  0.79170889    -0.24800
H721        H  0.98536263  0.37727225  0.82935585     0.20100
S722        S  0.94293327  0.36927280  0.93482346    -0.30500
H723        H  0.90789911  0.33571042  0.89682419     0.10400
C724        C  0.90161155  0.29193559  0.82704928     0.03600
C725        C  0.87655784  0.27663856  0.81471687    -0.12800
C726        C  0.84770725  0.28973617  0.81499133    -0.08500
C727        C  0.84372522  0.31795273  0.82957445     0.07100
C728        C  0.86872683  0.33329921  0.84132051    -0.13600
S729        S  0.93839270  0.27445746  0.82655701    -0.30500
H730        H  0.87961420  0.25496520  0.80385249     0.11300
S731        S  0.80727854  0.33550290  0.83444568    -0.27600
H732        H  0.86557882  0.35522411  0.85171598     0.08500
H733        H  0.95678062  0.39734067  0.93741471     0.27000
H734        H  0.92951899  0.24760892  0.81204689     0.21800
H735        H  0.79121320  0.30836300  0.83755652     0.27100
H736        H  0.91081355  0.34820936  0.78984692     0.15900
C737        C  0.71816482  0.17064279  0.89882630    -0.11400
C738        C  0.69419856  0.15059273  0.89310865     0.15200
C739        C  0.68595322  0.14420850  0.86290504     0.02100
C740        C  0.70025082  0.15943450  0.83945624    -0.15700
C741        C  0.72337169  0.18032366  0.84521286    -0.10500
C742        C  0.73283951  0.18553893  0.87524231     0.08800
C743        C  0.67596346  0.13945474  0.91882780     0.09800
S744        S  0.65691554  0.11739290  0.85279621    -0.24800
H745        H  0.69293007  0.15530113  0.81643385     0.20100
S746        S  0.76194852  0.21230963  0.88512740    -0.30500
H747        H  0.72446482  0.17587434  0.92191371     0.10400
C748        C  0.68822827  0.12113466  0.94134395     0.03600
C749        C  0.66992695  0.11183501  0.96524301    -0.12800
C750        C  0.63899449  0.12023995  0.96801374    -0.08500
C751        C  0.62637826  0.13686913  0.94317519     0.07100
C752        C  0.64543677  0.14725957  0.92023464    -0.13600
S753        S  0.72706882  0.10882056  0.93934133    -0.30500
H754        H  0.68013455  0.09825473  0.98266959     0.11300
S755        S  0.58653000  0.14394889  0.93704298    -0.27600
H756        H  0.63628259  0.16122408  0.90248852     0.08500
H757        H  0.75513135  0.23319781  0.86243862     0.27000
H758        H  0.72793886  0.09400996  0.96725898     0.21800
H759        H  0.58768915  0.14949670  0.90586781     0.27100
H760        H  0.66069653  0.09895318  0.87818174     0.15900
C761        C  0.83948302  0.10705022  0.70339798    -0.11400
C762        C  0.83789172  0.10649475  0.67180686     0.15200
C763        C  0.82520677  0.13118682  0.65659299     0.02100
C764        C  0.81381312  0.15547111  0.67324583    -0.15700
C765        C  0.81482772  0.15616460  0.70508341    -0.10500
C766        C  0.82842517  0.13154531  0.72015147     0.08800
C767        C  0.84877058  0.07942035  0.65546568     0.09800
S768        S  0.82216715  0.13283887  0.61601831    -0.24800
H769        H  0.80382429  0.17398780  0.66096507     0.20100
S770        S  0.83113823  0.12902229  0.76053730    -0.30500
H771        H  0.84922152  0.08803114  0.71512208     0.10400
C772        C  0.87960043  0.07407650  0.65132189     0.03600
C773        C  0.88902137  0.04758309  0.63690035    -0.12800
C774        C  0.86846893  0.02563484  0.62527151    -0.08500
C775        C  0.83684190  0.03187116  0.63001878     0.07100
C776        C  0.82785224  0.05841494  0.64475806    -0.13600
S777        S  0.90721492  0.10099983  0.66490146    -0.30500
H778        H  0.91296475  0.04394954  0.63648225     0.11300
S779        S  0.80566707  0.00691457  0.62110342    -0.27600
H780        H  0.80401438  0.06259098  0.64846652     0.08500
H781        H  0.84882167  0.15526730  0.76304688     0.27000
H782        H  0.93279940  0.08728079  0.65206446     0.21800
H783        H  0.81569622  0.99569061  0.59353187     0.27100
H784        H  0.84725152  0.11459614  0.60949053     0.15900
C785        C  0.89420491  0.29564109  0.18574734    -0.11400
C786        C  0.88954596  0.32012394  0.16654248     0.15200
C787        C  0.85979998  0.32893055  0.15925756     0.02100
C788        C  0.83542347  0.31361573  0.17198374    -0.15700
C789        C  0.83998231  0.28989641  0.19231384    -0.10500
C790        C  0.86986906  0.28031826  0.19851405     0.08800
C791        C  0.91615110  0.33551706  0.15384617     0.09800
S792        S  0.85142214  0.36000456  0.13460841    -0.24800
H793        H  0.81270657  0.32121728  0.16696036     0.20100
S794        S  0.87861275  0.24824224  0.22165416    -0.30500
H795        H  0.91704673  0.28832800  0.19067532     0.10400
C796        C  0.93557713  0.35273012  0.17203664     0.03600
C797        C  0.96002821  0.36745774  0.15882240    -0.12800
C798        C  0.96541109  0.36688072  0.12732343    -0.08500
C799        C  0.94784987  0.34549177  0.11006825     0.07100
C800        C  0.92275495  0.33160627  0.12336028    -0.13600
S801        S  0.92858385  0.35707840  0.21196980    -0.30500
H802        H  0.97449606  0.38060404  0.17323529     0.11300
S803        S  0.95868922  0.32990820  0.07381450    -0.27600
H804        H  0.90888843  0.31614521  0.11033748     0.08500
H805        H  0.85377950  0.23099772  0.21170151     0.27000
H806        H  0.95244457  0.37713083  0.21820608     0.21800
H807        H  0.92988110  0.31978545  0.06484385     0.27100
H808        H  0.87709194  0.37718736  0.14195176     0.15900
C809        C  0.68905478  0.14741237  0.12852512    -0.11400
C810        C  0.67321005  0.16493209  0.10755828     0.15200
C811        C  0.67044342  0.19622247  0.11264973     0.02100
C812        C  0.68490827  0.20943437  0.13751965    -0.15700
C813        C  0.70120589  0.19208019  0.15840590    -0.10500
C814        C  0.70273368  0.16054251  0.15398528     0.08800
C815        C  0.66110638  0.15025324  0.07989856     0.09800
S816        S  0.64887879  0.22057351  0.08826555    -0.24800
H817        H  0.68290230  0.23353912  0.14089097     0.20100
S818        S  0.72356605  0.13625337  0.17878396    -0.30500
H819        H  0.69120013  0.12338303  0.12474252     0.10400
C820        C  0.67368652  0.15582148  0.05155051     0.03600
C821        C  0.66053962  0.14301498  0.02575505    -0.12800
C822        C  0.63568214  0.12268214  0.02692459    -0.08500
C823        C  0.62330022  0.11733337  0.05647333     0.07100
C824        C  0.63618746  0.13115044  0.08200993    -0.13600
S825        S  0.70672480  0.17952192  0.04801430    -0.30500
H826        H  0.66954229  0.15058276  0.00470468     0.11300
S827        S  0.58988349  0.09532571  0.06471088    -0.27600
H828        H  0.62635183  0.12726275  0.10399947     0.08500
H829        H  0.70323976  0.14054984  0.20275587     0.27000
H830        H  0.71243306  0.17351390  0.01737053     0.21800
H831        H  0.59361554  0.07202811  0.04388771     0.27100
H832        H  0.62816920  0.19862539  0.07832641     0.15900
C833        C  0.80847511  0.10394343  0.30147121    -0.11400
C834        C  0.83011701  0.10952277  0.32399999     0.15200
C835        C  0.83894273  0.13943586  0.33032127     0.02100
C836        C  0.82489284  0.16304877  0.31503417    -0.15700
C837        C  0.80279422  0.15764517  0.29271967    -0.10500
C838        C  0.79514159  0.12749395  0.28544053     0.08800
C839        C  0.84433654  0.08344653  0.33894578     0.09800
S840        S  0.86797951  0.14911197  0.35742963    -0.24800
H841        H  0.83122210  0.18593286  0.32085923     0.20100
S842        S  0.76970546  0.11728880  0.25521020    -0.30500
H843        H  0.80234988  0.08092182  0.29594527     0.10400
C844        C  0.83929893  0.07664575  0.36935567     0.03600
C845        C  0.85383916  0.05179274  0.38222239    -0.12800
C846        C  0.87245613  0.03205810  0.36513823    -0.08500
C847        C  0.87723356  0.03974436  0.33408280     0.07100
C848        C  0.86315878  0.06504979  0.32178784    -0.13600
S849        S  0.81391778  0.09937156  0.39178443    -0.30500
H850        H  0.85099048  0.04871961  0.40605660     0.11300
S851        S  0.89960369  0.01709014  0.30841755    -0.27600
H852        H  0.86649344  0.07052595  0.29827440     0.08500
H853        H  0.78037689  0.13944096  0.23536026     0.27000
H854        H  0.81474486  0.08157746  0.41789301     0.21800
H855        H  0.90243650  0.03833150  0.28522661     0.27100
H856        H  0.88479260  0.12243047  0.35464799     0.15900
C857        C  0.14693424  0.86698581  0.32138701    -0.11400
C858        C  0.15389328  0.89634266  0.31229945     0.15200
C859        C  0.17228293  0.90054399  0.28659889     0.02100
C860        C  0.18491081  0.87548276  0.27196989    -0.15700
C861        C  0.17915125  0.84624681  0.28214260    -0.10500
C862        C  0.15892647  0.84199428  0.30632058     0.08800
C863        C  0.14442799  0.92188093  0.33187835     0.09800
S864        S  0.18133351  0.93729701  0.27209448    -0.24800
H865        H  0.20037088  0.87888953  0.25340610     0.20100
S866        S  0.14823016  0.80515761  0.31947468    -0.30500
H867        H  0.13276888  0.86351784  0.34094368     0.10400
C868        C  0.11399273  0.92885708  0.33699667     0.03600
C869        C  0.10652999  0.95358677  0.35531725    -0.12800
C870        C  0.12862206  0.97145859  0.37058935    -0.08500
C871        C  0.15962561  0.96386892  0.36435796     0.07100
C872        C  0.16671439  0.93937252  0.34572911    -0.13600
S873        S  0.08434073  0.90757701  0.31850343    -0.30500
H874        H  0.08301279  0.95925474  0.35591408     0.11300
S875        S  0.19232746  0.98460064  0.37712841    -0.27600
H876        H  0.19024225  0.93394801  0.34166263     0.08500
H877        H  0.15170906  0.79041139  0.29152399     0.27000
H878        H  0.06010801  0.91942461  0.33525532     0.21800
H879        H  0.18396287  0.98623037  0.40735652     0.27100
H880        H  0.15467223  0.95143461  0.28192545     0.15900
C881        C  0.32796601  0.84071448  0.13269540    -0.11400
C882        C  0.31895815  0.83241970  0.10346966     0.15200
C883        C  0.29385531  0.81302494  0.09959192     0.02100
C884        C  0.27788451  0.80311737  0.12490414    -0.15700
C885        C  0.28720444  0.81105931  0.15415166    -0.10500
C886        C  0.31244846  0.83027375  0.15799526     0.08800
C887        C  0.33581341  0.84501376  0.07759791     0.09800
S888        S  0.28184774  0.79912603  0.06313789    -0.24800
H889        H  0.25910710  0.78771082  0.12182782     0.20100
S890        S  0.32595009  0.84231799  0.19460339    -0.30500
H891        H  0.34715789  0.85560244  0.13579320     0.10400
C892        C  0.32299059  0.86682060  0.05888293     0.03600
C893        C  0.33969558  0.87805992  0.03475693    -0.12800
C894        C  0.36996949  0.86942833  0.02886905    -0.08500
C895        C  0.38166936  0.84506871  0.04672801     0.07100
C896        C  0.36484511  0.83439508  0.07137057    -0.13600
S897        S  0.28552190  0.88120097  0.06623081    -0.30500
H898        H  0.32915179  0.89473852  0.02080861     0.11300
S899        S  0.41561345  0.82404155  0.03770543    -0.27600
H900        H  0.37376848  0.81665300  0.08543196     0.08500
H901        H  0.29767511  0.84133385  0.20893396     0.27000
H902        H  0.28265543  0.89831092  0.03980631     0.21800
H903        H  0.41541091  0.80391490  0.06202851     0.27100
H904        H  0.31036333  0.80028682  0.04935214     0.15900
C905        C  0.07191137  0.63397196  0.15153088    -0.11400
C906        C  0.07395686  0.66527068  0.14866127     0.15200
C907        C  0.05165554  0.68030458  0.13194755     0.02100
C908        C  0.02808865  0.66392295  0.11874722    -0.15700
C909        C  0.02407687  0.63247427  0.12301840    -0.10500
C910        C  0.04734835  0.61731231  0.13985782     0.08800
C911        C  0.09971214  0.68145200  0.16332630     0.09800
S912        S  0.05098446  0.72066044  0.12773233    -0.24800
H913        H  0.01165783  0.67637363  0.10569359     0.20100
S914        S  0.04650133  0.57804340  0.15047963    -0.30500
H915        H  0.08938177  0.62267022  0.16430146     0.10400
C916        C  0.10455980  0.68019782  0.19480153     0.03600
C917        C  0.12988092  0.69453857  0.20750006    -0.12800
C918        C  0.15022835  0.71085129  0.18968417    -0.08500
C919        C  0.14507444  0.71258330  0.15826922     0.07100
C920        C  0.12000471  0.69786517  0.14548513    -0.13600
S921        S  0.07798113  0.66132485  0.21912284    -0.30500
H922        H  0.13372777  0.69337547  0.23159648     0.11300
S923        S  0.17028639  0.73192827  0.13311755    -0.27600
H924        H  0.11657475  0.69873695  0.12129994     0.08500
H925        H  0.07717561  0.57486879  0.15821233     0.27000
H926        H  0.09278550  0.66766698  0.24656946     0.21800
H927        H  0.19694572  0.72388630  0.14841214     0.27100
H928        H  0.06284235  0.72726491  0.15649423     0.15900
C929        C  0.29414272  0.15502811  0.89021568    -0.11400
C930        C  0.32429945  0.16229657  0.89709999     0.15200
C931        C  0.33943021  0.18356391  0.87934224     0.02100
C932        C  0.32448612  0.19692677  0.85519184    -0.15700
C933        C  0.29402294  0.19038551  0.84816762    -0.10500
C934        C  0.27875251  0.16898593  0.86626104     0.08800
C935        C  0.33932756  0.14880815  0.92373179     0.09800
S936        S  0.37780273  0.19511210  0.88676634    -0.24800
H937        H  0.33701540  0.21318109  0.84211578     0.20100
S938        S  0.24002469  0.15821195  0.86011394    -0.30500
H939        H  0.28235884  0.13877460  0.90398966     0.10400
C940        C  0.33289876  0.15912416  0.95284357     0.03600
C941        C  0.34915463  0.14784311  0.97734717    -0.12800
C942        C  0.37414060  0.12781283  0.97414050    -0.08500
C943        C  0.37915398  0.11642158  0.94406201     0.07100
C944        C  0.36181786  0.12710569  0.91974622    -0.13600
S945        S  0.30412152  0.18733893  0.95904413    -0.30500
H946        H  0.34058099  0.15424497  0.99903368     0.11300
S947        S  0.40602167  0.08756776  0.93374822    -0.27600
H948        H  0.36638805  0.11886151  0.89715628     0.08500
H949        H  0.22923100  0.18776396  0.86403450     0.27000
H950        H  0.31284443  0.19513104  0.98864038     0.21800
H951        H  0.43027233  0.09807289  0.95093952     0.27100
H952        H  0.37423327  0.19684977  0.91820723     0.15900
C953        C  0.11867800  0.32847216  0.80947876    -0.11400
C954        C  0.11258308  0.32164650  0.83960066     0.15200
C955        C  0.13002781  0.29954681  0.85441138     0.02100
C956        C  0.15349597  0.28512907  0.83879909    -0.15700
C957        C  0.16013016  0.29250777  0.80880410    -0.10500
C958        C  0.14207622  0.31411043  0.79383843     0.08800
C959        C  0.08619371  0.33641157  0.85368301     0.09800
S960        S  0.12350161  0.28849012  0.89293970    -0.24800
H961        H  0.16717513  0.26859155  0.85039496     0.20100
S962        S  0.14748619  0.32243429  0.75431891    -0.30500
H963        H  0.10463943  0.34486166  0.79812577     0.10400
C964        C  0.08828631  0.36475490  0.86755633     0.03600
C965        C  0.06201020  0.37873367  0.87830230    -0.12800
C966        C  0.03285568  0.36607138  0.87414547    -0.08500
C967        C  0.03193842  0.33544752  0.86318885     0.07100
C968        C  0.05834901  0.32192185  0.85216009    -0.13600
S969        S  0.12442985  0.38333577  0.87112504    -0.30500
H970        H  0.06409020  0.40063933  0.88863596     0.11300
S971        S  0.00023988  0.31003031  0.86724344    -0.27600
H972        H  0.05764704  0.29923371  0.84307953     0.08500
H973        H  0.12367655  0.34317218  0.75137183     0.27000
H974        H  0.11388796  0.40945876  0.88576537     0.21800
H975        H  0.00821775  0.28976697  0.84409086     0.27100
H976        H  0.10795883  0.31438586  0.90240676     0.15900
C977        C  0.19936761  0.10720862  0.68404387    -0.11400
C978        C  0.16772861  0.10542565  0.68411150     0.15200
C979        C  0.15104332  0.12740000  0.70015459     0.02100
C980        C  0.16628621  0.15060676  0.71556065    -0.15700
C981        C  0.19789254  0.15293312  0.71458164    -0.10500
C982        C  0.21456603  0.13060386  0.69900321     0.08800
C983        C  0.15300082  0.07988262  0.66794751     0.09800
S984        S  0.11031242  0.12778360  0.70070410    -0.24800
H985        H  0.15330794  0.16781750  0.72711382     0.20100
S986        S  0.25531889  0.13045914  0.69771036    -0.30500
H987        H  0.21233266  0.09014867  0.67224121     0.10400
C988        C  0.15372561  0.07742440  0.63636327     0.03600
C989        C  0.14071980  0.05229472  0.62203443    -0.12800
C990        C  0.12611008  0.02905548  0.63836329    -0.08500
C991        C  0.12478674  0.03261714  0.67052686     0.07100
C992        C  0.13845432  0.05761230  0.68459518    -0.13600
S993        S  0.17103827  0.10662914  0.61407583    -0.30500
H994        H  0.14303694  0.05087646  0.59793501     0.11300
S995        S  0.10385953  0.00705575  0.69426867    -0.27600
H996        H  0.13755568  0.06014632  0.70887133     0.08500
H997        H  0.25964436  0.14385209  0.72623872     0.27000
H998        H  0.16298204  0.09505682  0.58555348     0.21800
H999        H  0.11481699  0.01757085  0.72222494     0.27100
H1000       H  0.10634761  0.11561993  0.67160250     0.15900
C1001       C  0.61841384  0.16700726  0.69652663    -0.11400
C1002       C  0.61513113  0.17081000  0.66532627     0.15200
C1003       C  0.63574091  0.18946436  0.64992532     0.02100
C1004       C  0.65877760  0.20411025  0.66603537    -0.15700
C1005       C  0.66211916  0.20037968  0.69729972    -0.10500
C1006       C  0.64186222  0.18105396  0.71255425     0.08800
C1007       C  0.58864662  0.15688924  0.65005399     0.09800
S1008       S  0.63394648  0.19544909  0.60976974    -0.24800
H1009       H  0.67428375  0.21855041  0.65399366     0.20100
S1010       S  0.64534589  0.17215810  0.75205009    -0.30500
H1011       H  0.60262653  0.15277524  0.70846770     0.10400
C1012       C  0.58525904  0.12559646  0.64713057     0.03600
C1013       C  0.55862932  0.11372834  0.63442745    -0.12800
C1014       C  0.53384660  0.13223559  0.62590843    -0.08500
C1015       C  0.53972760  0.16402205  0.62568710     0.07100
C1016       C  0.56627649  0.17563789  0.63857039    -0.13600
S1017       S  0.61537789  0.10071462  0.65862977    -0.30500
H1018       H  0.55802707  0.08981895  0.63047443     0.11300
S1019       S  0.51407197  0.19127698  0.61031901    -0.27600
H1020       H  0.56946850  0.19977055  0.64026935     0.08500
H1021       H  0.67699630  0.16921340  0.75151070     0.27000
H1022       H  0.59968914  0.07353003  0.65390764     0.21800
H1023       H  0.53533165  0.21435291  0.60571549     0.27100
H1024       H  0.62143210  0.16723605  0.60241064     0.15900
C1025       C  0.45009343  0.15910741  0.67282534    -0.11400
C1026       C  0.42180876  0.15301379  0.66010950     0.15200
C1027       C  0.41965060  0.13164011  0.63671928     0.02100
C1028       C  0.44610081  0.11952600  0.62442187    -0.15700
C1029       C  0.47524873  0.12910442  0.63370174    -0.10500
C1030       C  0.47658576  0.14614436  0.66128843     0.08800
C1031       C  0.39514738  0.16889775  0.67247319     0.09800
S1032       S  0.38407362  0.12018631  0.62028634    -0.24800
H1033       H  0.44364421  0.10426415  0.60562524     0.20100
S1034       S  0.50910278  0.14743245  0.68614353    -0.30500
H1035       H  0.45117099  0.17333801  0.69273396     0.10400
C1036       C  0.38408238  0.16212885  0.70135339     0.03600
C1037       C  0.36061134  0.17943591  0.71350574    -0.12800
C1038       C  0.34752893  0.20311132  0.69720585    -0.08500
C1039       C  0.35819426  0.20947140  0.66794926     0.07100
C1040       C  0.38187652  0.19226411  0.65587834    -0.13600
S1041       S  0.39930855  0.13086169  0.72234741    -0.30500
H1042       H  0.35196431  0.17418325  0.73567254     0.11300
S1043       S  0.34345834  0.23983193  0.64551555    -0.27600
H1044       H  0.39053139  0.19755441  0.63370482     0.08500
H1045       H  0.50118856  0.17406210  0.70154046     0.27000
H1046       H  0.38030126  0.13375593  0.74754866     0.21800
H1047       H  0.33617727  0.25877341  0.66995844     0.27100
H1048       H  0.36634784  0.12540447  0.64601266     0.15900
C1049       C  0.36797377  0.83561366  0.66774638    -0.11400
C1050       C  0.39696973  0.82302969  0.66831858     0.15200
C1051       C  0.40141668  0.79503132  0.68264718     0.02100
C1052       C  0.37686385  0.78043297  0.69617617    -0.15700
C1053       C  0.34768016  0.79282348  0.69517524    -0.10500
C1054       C  0.34346532  0.82108612  0.68112587     0.08800
C1055       C  0.42214834  0.84023138  0.65460460     0.09800
S1056       S  0.43769443  0.77659963  0.68401633    -0.24800
H1057       H  0.38045488  0.75892767  0.70699793     0.20100
S1058       S  0.30785093  0.84083971  0.68097123    -0.30500
H1059       H  0.36455447  0.85734114  0.65730088     0.10400
C1060       C  0.42388097  0.84440702  0.62335785     0.03600
C1061       C  0.44835259  0.86015298  0.61120088    -0.12800
C1062       C  0.47169118  0.87292615  0.62935400    -0.08500
C1063       C  0.46892160  0.86892944  0.66134226     0.07100
C1064       C  0.44438070  0.85283216  0.67321752    -0.13600
S1065       S  0.39583553  0.82791245  0.59849611    -0.30500
H1066       H  0.44973691  0.86034479  0.58703166     0.11300
S1067       S  0.49595308  0.88410463  0.68816528    -0.27600
H1068       H  0.44234619  0.84999331  0.69735555     0.08500
H1069       H  0.30034833  0.83339905  0.71082074     0.27000
H1070       H  0.40553014  0.84178627  0.57179715     0.21800
H1071       H  0.48752934  0.86641710  0.71294626     0.27100
H1072       H  0.44843272  0.78785992  0.65650504     0.15900
C1073       C  0.49462525  0.03052089  0.60022320    -0.11400
C1074       C  0.50478968  0.01903178  0.62757702     0.15200
C1075       C  0.51134436  0.03916707  0.65134296     0.02100
C1076       C  0.50835530  0.07029013  0.64675050    -0.15700
C1077       C  0.50155702  0.08266379  0.61806427    -0.10500
C1078       C  0.49136981  0.06148856  0.59541599     0.08800
C1079       C  0.50663262  0.98571483  0.63004678     0.09800
S1080       S  0.52452712  0.02673642  0.68769693    -0.24800
H1081       H  0.51339630  0.08519664  0.66548086     0.20100
S1082       S  0.47014229  0.07122053  0.56183927    -0.30500
H1083       H  0.48829296  0.01469821  0.58259639     0.10400
C1084       C  0.48374729  0.96880390  0.64373450     0.03600
C1085       C  0.48317001  0.93735520  0.64001417    -0.12800
C1086       C  0.50495735  0.92161277  0.62249061    -0.08500
C1087       C  0.52888064  0.93943087  0.60988511     0.07100
C1088       C  0.52912462  0.97080618  0.61385597    -0.13600
S1089       S  0.45370517  0.98758175  0.66391867    -0.30500
H1090       H  0.46406059  0.92567846  0.64922924     0.11300
S1091       S  0.55939899  0.92345684  0.58782044    -0.27600
H1092       H  0.54638006  0.98425964  0.60314468     0.08500
H1093       H  0.45760425  0.04277220  0.55543453     0.27000
H1094       H  0.43707126  0.96169547  0.67130489     0.21800
H1095       H  0.57673174  0.94972136  0.58428901     0.27100
H1096       H  0.53779647  0.99978100  0.67759918     0.15900
C1097       C  0.41575622  0.16244054  0.37427224    -0.11400
C1098       C  0.41573166  0.16780418  0.34330921     0.15200
C1099       C  0.43875500  0.15535934  0.32538972     0.02100
C1100       C  0.46232167  0.13964242  0.33917433    -0.15700
C1101       C  0.46482251  0.13715164  0.37092954    -0.10500
C1102       C  0.43872320  0.14575297  0.38813586     0.08800
C1103       C  0.38946146  0.18347651  0.33013042     0.09800
S1104       S  0.43989696  0.15931148  0.28493741    -0.24800
H1105       H  0.48010943  0.13069381  0.32499282     0.20100
S1106       S  0.43064435  0.13266973  0.42592668    -0.30500
H1107       H  0.39676509  0.17039650  0.38743677     0.10400
C1108       C  0.36153166  0.16858382  0.32737625     0.03600
C1109       C  0.33725476  0.18337022  0.31385749    -0.12800
C1110       C  0.34013037  0.21279252  0.30278287    -0.08500
C1111       C  0.36809520  0.22793048  0.30600012     0.07100
C1112       C  0.39240658  0.21317836  0.31992890    -0.13600
S1113       S  0.35710302  0.13017979  0.33988840    -0.30500
H1114       H  0.31587742  0.17170906  0.31146682     0.11300
S1115       S  0.37474040  0.26506432  0.29135118    -0.27600
H1116       H  0.41397967  0.22455657  0.32208811     0.08500
H1117       H  0.39951309  0.13902775  0.42622202     0.27000
H1118       H  0.32591793  0.12776935  0.33413761     0.21800
H1119       H  0.35823204  0.26040432  0.26455388     0.27100
H1120       H  0.40853176  0.16063803  0.28019333     0.15900
C1121       C  0.57881095  0.14868057  0.37142691    -0.11400
C1122       C  0.57507570  0.17393762  0.35320788     0.15200
C1123       C  0.54587546  0.18414647  0.34675165     0.02100
C1124       C  0.52104541  0.16769238  0.35645356    -0.15700
C1125       C  0.52375270  0.14054956  0.37310337    -0.10500
C1126       C  0.55383801  0.13239823  0.38221801     0.08800
C1127       C  0.60165778  0.18768183  0.33867926     0.09800
S1128       S  0.53870739  0.21846506  0.32633931    -0.24800
H1129       H  0.49952181  0.17802035  0.35206079     0.20100
S1130       S  0.56188765  0.10012154  0.40558030    -0.30500
H1131       H  0.60154507  0.14116730  0.37639757     0.10400
C1132       C  0.62262846  0.20545890  0.35484814     0.03600
C1133       C  0.64668842  0.21896595  0.33937785    -0.12800
C1134       C  0.65022798  0.21459910  0.30819530    -0.08500
C1135       C  0.62889707  0.19701851  0.29211077     0.07100
C1136       C  0.60505888  0.18363718  0.30753131    -0.13600
S1137       S  0.61839449  0.21130644  0.39493357    -0.30500
H1138       H  0.66315038  0.23237333  0.35162071     0.11300
S1139       S  0.63037767  0.19138551  0.25178536    -0.27600
H1140       H  0.58870196  0.17023046  0.29508371     0.08500
H1141       H  0.59212344  0.10731644  0.41235876     0.27000
H1142       H  0.64552838  0.22726621  0.39936312     0.21800
H1143       H  0.64257174  0.21983828  0.24522464     0.27100
H1144       H  0.56478560  0.23370146  0.33631618     0.15900
C1145       C  0.50180174  0.15282535  0.46623280    -0.11400
C1146       C  0.50316491  0.12622308  0.48270954     0.15200
C1147       C  0.50054223  0.09843910  0.46758566     0.02100
C1148       C  0.49809566  0.09782466  0.43617378    -0.15700
C1149       C  0.49643494  0.12446977  0.41874196    -0.10500
C1150       C  0.49799964  0.15257236  0.43484538     0.08800
C1151       C  0.50493048  0.12824055  0.51601341     0.09800
S1152       S  0.49939834  0.06340736  0.48810872    -0.24800
H1153       H  0.49836362  0.07597394  0.42563809     0.20100
S1154       S  0.49286191  0.18866518  0.41682922    -0.30500
H1155       H  0.50303613  0.17401003  0.47838221     0.10400
C1156       C  0.52921273  0.11633342  0.53229270     0.03600
C1157       C  0.52741984  0.11503519  0.56369595    -0.12800
C1158       C  0.50242432  0.12663679  0.58027966    -0.08500
C1159       C  0.48009785  0.14314840  0.56308364     0.07100
C1160       C  0.48148892  0.14242914  0.53150343    -0.13600
S1161       S  0.56249935  0.10256905  0.51311426    -0.30500
H1162       H  0.54527192  0.10332565  0.57542090     0.11300
S1163       S  0.44828533  0.16550104  0.57596753    -0.27600
H1164       H  0.46361370  0.15293180  0.51849918     0.08500
H1165       H  0.49732149  0.20724773  0.44225124     0.27000
H1166       H  0.57871550  0.09395550  0.53898599     0.21800
H1167       H  0.45816759  0.17482793  0.60431676     0.27100
H1168       H  0.49323892  0.04424004  0.46345755     0.15900
C1169       C  0.54892244  0.85541280  0.32097707    -0.11400
C1170       C  0.57198314  0.84348861  0.33888346     0.15200
C1171       C  0.57081466  0.84779103  0.37020103     0.02100
C1172       C  0.54702111  0.86393873  0.38295006    -0.15700
C1173       C  0.52303749  0.87653313  0.36567355    -0.10500
C1174       C  0.52439762  0.87124803  0.33360549     0.08800
C1175       C  0.59778928  0.82766869  0.32448391     0.09800
S1176       S  0.59864868  0.83227816  0.39560913    -0.24800
H1177       H  0.54711824  0.86452023  0.40715971     0.20100
S1178       S  0.49532975  0.88381893  0.30762487    -0.30500
H1179       H  0.55025896  0.85217515  0.29680225     0.10400
C1180       C  0.59459371  0.79917104  0.31057400     0.03600
C1181       C  0.62028791  0.78439392  0.29913539    -0.12800
C1182       C  0.64912990  0.79754284  0.30135133    -0.08500
C1183       C  0.65183240  0.82670219  0.31415191     0.07100
C1184       C  0.62637084  0.84112936  0.32589694    -0.13600
S1185       S  0.55807673  0.78108998  0.30857093    -0.30500
H1186       H  0.61804217  0.76226753  0.28899010     0.11300
S1187       S  0.68667770  0.84761392  0.31477747    -0.27600
H1188       H  0.62878003  0.86326396  0.33606853     0.08500
H1189       H  0.50491950  0.86759563  0.28206107     0.27000
H1190       H  0.56750374  0.75533282  0.29257189     0.21800
H1191       H  0.69689811  0.83707982  0.28662290     0.27100
H1192       H  0.60431376  0.80605932  0.37862705     0.15900
C1193       C  0.43820198  0.82793581  0.35590505    -0.11400
C1194       C  0.41443008  0.84466211  0.34402414     0.15200
C1195       C  0.41626813  0.87621255  0.34428136     0.02100
C1196       C  0.44190912  0.89034798  0.35622782    -0.15700
C1197       C  0.46626126  0.87409128  0.36934780    -0.10500
C1198       C  0.46390610  0.84169260  0.36828570     0.08800
C1199       C  0.38864537  0.82834729  0.33028343     0.09800
S1200       S  0.38690314  0.89991599  0.32902997    -0.24800
H1201       H  0.44226556  0.91456516  0.35484673     0.20100
S1202       S  0.49261147  0.81504941  0.37982449    -0.30500
H1203       H  0.43687212  0.80356672  0.35503512     0.10400
C1204       C  0.38555061  0.82571863  0.29879214     0.03600
C1205       C  0.36041204  0.81068256  0.28672052    -0.12800
C1206       C  0.33825994  0.79801178  0.30546031    -0.08500
C1207       C  0.34197662  0.79981237  0.33710880     0.07100
C1208       C  0.36717573  0.81499894  0.34914559    -0.13600
S1209       S  0.41378184  0.84126673  0.27399574    -0.30500
H1210       H  0.35772611  0.80923620  0.26247528     0.11300
S1211       S  0.31563537  0.78183930  0.36230823    -0.27600
H1212       H  0.37019466  0.81671728  0.37333635     0.08500
H1213       H  0.50291547  0.82945275  0.40588482     0.27000
H1214       H  0.39982044  0.83277100  0.24668245     0.21800
H1215       H  0.33069455  0.78917928  0.38936657     0.27100
H1216       H  0.36269611  0.88022933  0.33443629     0.15900
C1217       C  0.51962412  0.90272488  0.46612930    -0.11400
C1218       C  0.49854176  0.88521907  0.48143474     0.15200
C1219       C  0.47663880  0.86912207  0.46507760     0.02100
C1220       C  0.47587160  0.87119209  0.43373067    -0.15700
C1221       C  0.49730751  0.88831403  0.41723679    -0.10500
C1222       C  0.51941304  0.90470804  0.43458252     0.08800
C1223       C  0.49922321  0.88522247  0.51468334     0.09800
S1224       S  0.44845356  0.84597178  0.48297443    -0.24800
H1225       H  0.45758151  0.85945601  0.42271210     0.20100
S1226       S  0.54801812  0.92821565  0.41732256    -0.30500
H1227       H  0.53624286  0.91509177  0.47922641     0.10400
C1228       C  0.52118153  0.86909504  0.53050450     0.03600
C1229       C  0.52140225  0.87007674  0.56199203    -0.12800
C1230       C  0.49936898  0.88610207  0.57899163    -0.08500
C1231       C  0.47748033  0.90293587  0.56206738     0.07100
C1232       C  0.47777498  0.90200277  0.53043458    -0.13600
S1233       S  0.54911934  0.84710401  0.51047402    -0.30500
H1234       H  0.54004306  0.85901896  0.57283920     0.11300
S1235       S  0.44813531  0.92528554  0.57971491    -0.27600
H1236       H  0.46115899  0.91445544  0.51761458     0.08500
H1237       H  0.56095103  0.93992826  0.44393125     0.27000
H1238       H  0.56183931  0.83295009  0.53579635     0.21800
H1239       H  0.43404371  0.93591012  0.55339585     0.27100
H1240       H  0.46643783  0.83722286  0.50759021     0.15900
C1241       C  0.51637835  0.04166963  0.35562246    -0.11400
C1242       C  0.49086252  0.02496156  0.36438198     0.15200
C1243       C  0.46472971  0.04148210  0.37249732     0.02100
C1244       C  0.46692443  0.07240478  0.37808177    -0.15700
C1245       C  0.49334272  0.08918736  0.37161204    -0.10500
C1246       C  0.51601638  0.07341092  0.35505398     0.08800
C1247       C  0.49217519  0.99107787  0.36722718     0.09800
S1248       S  0.42756391  0.02495769  0.37545709    -0.24800
H1249       H  0.44751007  0.08341503  0.38782608     0.20100
S1250       S  0.54063850  0.09154235  0.32823279    -0.30500
H1251       H  0.53658531  0.03011696  0.34852872     0.10400
C1252       C  0.50704529  0.97166098  0.34669005     0.03600
C1253       C  0.50913475  0.94064413  0.35290574    -0.12800
C1254       C  0.49228682  0.92657062  0.37608016    -0.08500
C1255       C  0.47493663  0.94666914  0.39490683     0.07100
C1256       C  0.47797763  0.97783844  0.39198900    -0.13600
S1257       S  0.52212397  0.98517078  0.31144366    -0.30500
H1258       H  0.52420515  0.92785028  0.33898908     0.11300
S1259       S  0.44873664  0.93612525  0.42427929    -0.27600
H1260       H  0.46764319  0.99213112  0.40892018     0.08500
H1261       H  0.55893748  0.06647382  0.32173180     0.27000
H1262       H  0.52685247  0.95683215  0.29790545     0.21800
H1263       H  0.43597093  0.91121435  0.40973398     0.27100
H1264       H  0.43305714  0.00155003  0.35465689     0.15900
C1265       C  0.68450056  0.59689435  0.20712243    -0.11400
C1266       C  0.66653476  0.60110829  0.18128508     0.15200
C1267       C  0.66155079  0.63075553  0.17100635     0.02100
C1268       C  0.67416013  0.65519064  0.18673580    -0.15700
C1269       C  0.69248666  0.65109960  0.21236598    -0.10500
C1270       C  0.69741161  0.62140109  0.22273485     0.08800
C1271       C  0.65155867  0.57461283  0.16664505     0.09800
S1272       S  0.63987152  0.63899116  0.13751103    -0.24800
H1273       H  0.67036829  0.67767838  0.17819337     0.20100
S1274       S  0.71858209  0.61326018  0.25648551    -0.30500
H1275       H  0.68791831  0.57433167  0.21560939     0.10400
C1276       C  0.66797112  0.55136095  0.15282595     0.03600
C1277       C  0.65251411  0.52775973  0.13828222    -0.12800
C1278       C  0.62043912  0.52656658  0.13551273    -0.08500
C1279       C  0.60410060  0.55006770  0.15134168     0.07100
C1280       C  0.62005474  0.57325214  0.16610249    -0.13600
S1281       S  0.70878194  0.55241726  0.15217870    -0.30500
H1282       H  0.66587091  0.51039904  0.12755162     0.11300
S1283       S  0.56363826  0.55543276  0.15436559    -0.27600
H1284       H  0.60757511  0.59103454  0.17738143     0.08500
H1285       H  0.70808267  0.63848931  0.27267038     0.27000
H1286       H  0.71310220  0.52637106  0.13451009     0.21800
H1287       H  0.55481818  0.52621474  0.16141054     0.27100
H1288       H  0.64740309  0.61244051  0.12181782     0.15900
C1289       C  0.62885185  0.44007799  0.17988571    -0.11400
C1290       C  0.64965379  0.42164280  0.16522429     0.15200
C1291       C  0.65745064  0.42797664  0.13526225     0.02100
C1292       C  0.64384419  0.45217396  0.12047417    -0.15700
C1293       C  0.62148277  0.47065798  0.13426411    -0.10500
C1294       C  0.61523799  0.46457170  0.16539525     0.08800
C1295       C  0.66231812  0.39561817  0.18172763     0.09800
S1296       S  0.68519213  0.40638928  0.11467525    -0.24800
H1297       H  0.65207041  0.45667772  0.09810680     0.20100
S1298       S  0.59072221  0.48764497  0.18822307    -0.30500
H1299       H  0.62355319  0.43526227  0.20317746     0.10400
C1300       C  0.68206778  0.39949688  0.20653552     0.03600
C1301       C  0.69368788  0.37407931  0.22124051    -0.12800
C1302       C  0.68616642  0.34496671  0.21136958    -0.08500
C1303       C  0.66565781  0.34120775  0.18713084     0.07100
C1304       C  0.65405779  0.36650755  0.17255588    -0.13600
S1305       S  0.69392878  0.43671006  0.21825180    -0.30500
H1306       H  0.70974550  0.37680935  0.23954040     0.11300
S1307       S  0.65342012  0.30469674  0.17378450    -0.27600
H1308       H  0.63849721  0.36351896  0.15384073     0.08500
H1309       H  0.58743864  0.46801827  0.21274037     0.27000
H1310       H  0.71214971  0.42761281  0.24259049     0.21800
H1311       H  0.65599988  0.29015253  0.20175077     0.27100
H1312       H  0.70300669  0.39870931  0.13977300     0.15900
C1313       C  0.63554244  0.41157406  0.86849524    -0.11400
C1314       C  0.65845258  0.41314274  0.84702477     0.15200
C1315       C  0.66916882  0.44144546  0.83819852     0.02100
C1316       C  0.65764777  0.46738722  0.85168889    -0.15700
C1317       C  0.63535292  0.46683118  0.87472362    -0.10500
C1318       C  0.62374454  0.43752088  0.88237317     0.08800
C1319       C  0.67092770  0.38504606  0.83397440     0.09800
S1320       S  0.69755338  0.44626644  0.80942878    -0.24800
H1321       H  0.66629837  0.48812645  0.84284327     0.20100
S1322       S  0.59250605  0.42996794  0.90750736    -0.30500
H1323       H  0.62677184  0.38966901  0.87462417     0.10400
C1324       C  0.70066334  0.37583833  0.84054743     0.03600
C1325       C  0.71320962  0.35164607  0.82453202    -0.12800
C1326       C  0.69641063  0.33594538  0.80258179    -0.08500
C1327       C  0.66612742  0.34431455  0.79702744     0.07100
C1328       C  0.65367680  0.36871862  0.81286355    -0.13600
S1329       S  0.72255101  0.39485473  0.86942341    -0.30500
H1330       H  0.73619254  0.34473376  0.82922662     0.11300
S1331       S  0.64279691  0.32585541  0.76907659    -0.27600
H1332       H  0.63079844  0.37581719  0.80782884     0.08500
H1333       H  0.59695939  0.45286357  0.92861643     0.27000
H1334       H  0.74819139  0.37624421  0.86763491     0.21800
H1335       H  0.66637101  0.31924438  0.74892577     0.27100
H1336       H  0.68974965  0.42079390  0.79213039     0.15900
C1337       C  0.62827370  0.52758175  0.97161770    -0.11400
C1338       C  0.63963183  0.50262448  0.98696802     0.15200
C1339       C  0.65108252  0.47833391  0.96993485     0.02100
C1340       C  0.64745363  0.47789312  0.93853978    -0.15700
C1341       C  0.63211755  0.50113573  0.92282267    -0.10500
C1342       C  0.62557856  0.52787004  0.94005243     0.08800
C1343       C  0.63494662  0.50078091  0.02024759     0.09800
S1344       S  0.66977848  0.44662211  0.98704740    -0.24800
H1345       H  0.65608278  0.45837915  0.92684851     0.20100
S1346       S  0.60954603  0.56150786  0.92362754    -0.30500
H1347       H  0.61957409  0.54634612  0.98463854     0.10400
C1348       C  0.64538313  0.52294755  0.04051402     0.03600
C1349       C  0.63666732  0.52198995  0.07095571    -0.12800
C1350       C  0.61859099  0.49841051  0.08284755    -0.08500
C1351       C  0.60980943  0.47508594  0.06189256     0.07100
C1352       C  0.61736353  0.47724475  0.03129411    -0.13600
S1353       S  0.67004914  0.55264055  0.02772893    -0.30500
H1354       H  0.64326007  0.54086563  0.08474969     0.11300
S1355       S  0.58966065  0.44141825  0.07291019    -0.27600
H1356       H  0.60919828  0.46043846  0.01546268     0.08500
H1357       H  0.61556223  0.58098866  0.94807507     0.27000
H1358       H  0.67662119  0.56509050  0.05626396     0.21800
H1359       H  0.59026175  0.42599178  0.04512676     0.27100
H1360       H  0.67961667  0.46217882  0.01301459     0.15900
C1361       C  0.28755245  0.39746219  0.18349505    -0.11400
C1362       C  0.31900678  0.40153769  0.18461047     0.15200
C1363       C  0.33672424  0.38115013  0.20150195     0.02100
C1364       C  0.32276953  0.35677072  0.21581821    -0.15700
C1365       C  0.29162938  0.35155125  0.21269767    -0.10500
C1366       C  0.27377176  0.37262734  0.19692621     0.08800
C1367       C  0.33243066  0.42666669  0.16709361     0.09800
S1368       S  0.37730513  0.38385058  0.20417374    -0.24800
H1369       H  0.33661726  0.34066424  0.22782903     0.20100
S1370       S  0.23334543  0.36897953  0.19280496    -0.30500
H1371       H  0.27368040  0.41339641  0.17127944     0.10400
C1372       C  0.32867468  0.42828517  0.13575596     0.03600
C1373       C  0.33984382  0.45308808  0.12011618    -0.12800
C1374       C  0.35855773  0.47548167  0.13372578    -0.08500
C1375       C  0.36078977  0.47408095  0.16623761     0.07100
C1376       C  0.34787043  0.44984323  0.18199447    -0.13600
S1377       S  0.30995151  0.39836743  0.11499835    -0.30500
H1378       H  0.33255689  0.45451006  0.09709815     0.11300
S1379       S  0.37948746  0.50272457  0.18907962    -0.27600
H1380       H  0.34972775  0.44877370  0.20630178     0.08500
H1381       H  0.22865969  0.35405153  0.22025690     0.27000
H1382       H  0.31946862  0.40704996  0.08608722     0.21800
H1383       H  0.37347370  0.49078513  0.21771175     0.27100
H1384       H  0.38173748  0.39513835  0.17498063     0.15900
C1385       C  0.32532112  0.63542288  0.16453596    -0.11400
C1386       C  0.32447642  0.60763318  0.17926477     0.15200
C1387       C  0.31231779  0.60606211  0.20864938     0.02100
C1388       C  0.29943510  0.63182227  0.22168538    -0.15700
C1389       C  0.29974498  0.65952036  0.20665125    -0.10500
C1390       C  0.31309328  0.66126926  0.17776722     0.08800
C1391       C  0.33661507  0.58100044  0.16309836     0.09800
S1392       S  0.31317185  0.57222049  0.23090862    -0.24800
H1393       H  0.28966569  0.63040408  0.24400545     0.20100
S1394       S  0.31387491  0.69532069  0.15582292    -0.30500
H1395       H  0.33491727  0.63680069  0.14212792     0.10400
C1396       C  0.31810413  0.55717464  0.15345260     0.03600
C1397       C  0.33082132  0.53317350  0.13729250    -0.12800
C1398       C  0.36207576  0.53181581  0.12988042    -0.08500
C1399       C  0.38064474  0.55634293  0.14070346     0.07100
C1400       C  0.36730719  0.58044214  0.15630643    -0.13600
S1401       S  0.27787268  0.55796688  0.16009929    -0.30500
H1402       H  0.31593593  0.51542232  0.12943872     0.11300
S1403       S  0.42118059  0.55926811  0.13705114    -0.27600
H1404       H  0.38110667  0.59926675  0.16371128     0.08500
H1405       H  0.28452995  0.70459235  0.16365049     0.27000
H1406       H  0.27220754  0.52777903  0.15212335     0.21800
H1407       H  0.42647581  0.57697415  0.16298016     0.27100
H1408       H  0.33905721  0.55972674  0.21750512     0.15900
C1409       C  0.52304308  0.51738866  0.09810093    -0.11400
C1410       C  0.50747658  0.49267757  0.11005142     0.15200
C1411       C  0.52491039  0.46830738  0.12045052     0.02100
C1412       C  0.55603290  0.47192040  0.12496362    -0.15700
C1413       C  0.57223898  0.49739787  0.11439916    -0.10500
C1414       C  0.55468682  0.51892948  0.09779910     0.08800
C1415       C  0.47347259  0.49299568  0.11066340     0.09800
S1416       S  0.50982300  0.43076107  0.12463984    -0.24800
H1417       H  0.56769477  0.45273755  0.13410710     0.20100
S1418       S  0.56956599  0.54929706  0.07523309    -0.30500
H1419       H  0.51050443  0.53595964  0.08854573     0.10400
C1420       C  0.45662002  0.48343756  0.13576045     0.03600
C1421       C  0.42496656  0.48292832  0.13415416    -0.12800
C1422       C  0.40847102  0.49887374  0.11192023    -0.08500
C1423       C  0.42639008  0.51115344  0.08777270     0.07100
C1424       C  0.45760787  0.50555952  0.08643566    -0.13600
S1425       S  0.47457399  0.47530241  0.17154413    -0.30500
H1426       H  0.41392385  0.47084935  0.15161754     0.11300
S1427       S  0.41236651  0.53803449  0.06058551    -0.27600
H1428       H  0.47018443  0.51331046  0.06713348     0.08500
H1429       H  0.59272558  0.55860041  0.09448729     0.27000
H1430       H  0.44807798  0.47223484  0.18867970     0.21800
H1431       H  0.43509056  0.53431084  0.03878827     0.27100
H1432       H  0.48554877  0.43455103  0.10446822     0.15900
C1433       C  0.34591535  0.61520948  0.80187409    -0.11400
C1434       C  0.32953036  0.60185074  0.82528838     0.15200
C1435       C  0.30013412  0.61240700  0.83175422     0.02100
C1436       C  0.28768495  0.63559748  0.81443171    -0.15700
C1437       C  0.30427559  0.64939305  0.79136807    -0.10500
C1438       C  0.33360812  0.63871466  0.78482788     0.08800
C1439       C  0.34346588  0.57651040  0.84199228     0.09800
S1440       S  0.27765209  0.59776113  0.86219948    -0.24800
H1441       H  0.26532375  0.64387762  0.81991847     0.20100
S1442       S  0.35605153  0.65352479  0.75449979    -0.30500
H1443       H  0.36834951  0.60699393  0.79661689     0.10400
C1444       C  0.33425170  0.54670904  0.83721638     0.03600
C1445       C  0.34838617  0.52350155  0.85316604    -0.12800
C1446       C  0.37327755  0.52846739  0.87317731    -0.08500
C1447       C  0.37936501  0.55939736  0.88033452     0.07100
C1448       C  0.36555196  0.58257516  0.86374543    -0.13600
S1449       S  0.30448467  0.53803647  0.81047662    -0.30500
H1450       H  0.33901022  0.50137278  0.84986861     0.11300
S1451       S  0.40329909  0.57089739  0.91118827    -0.27600
H1452       H  0.37150851  0.60584318  0.86816486     0.08500
H1453       H  0.33145378  0.66077308  0.73573411     0.27000
H1454       H  0.30589527  0.50649902  0.81272638     0.21800
H1455       H  0.39342493  0.60092713  0.91334687     0.27100
H1456       H  0.30195761  0.59002154  0.88108692     0.15900
C1457       C  0.37104506  0.43839839  0.82808241    -0.11400
C1458       C  0.35400642  0.41787092  0.84447738     0.15200
C1459       C  0.34988148  0.42270577  0.87554423     0.02100
C1460       C  0.36169184  0.44862659  0.88928539    -0.15700
C1461       C  0.37802793  0.47069542  0.87298538    -0.10500
C1462       C  0.38318941  0.46438583  0.84156023     0.08800
C1463       C  0.33985260  0.39231806  0.82804158     0.09800
S1464       S  0.32961407  0.39662546  0.89905792    -0.24800
H1465       H  0.35883369  0.45029721  0.91333396     0.20100
S1466       S  0.40276432  0.49007483  0.81681665    -0.30500
H1467       H  0.37391426  0.43444461  0.80413793     0.10400
C1468       C  0.30893159  0.39245730  0.82064322     0.03600
C1469       C  0.29645182  0.36795317  0.80484045    -0.12800
C1470       C  0.31423325  0.34315405  0.79591212    -0.08500
C1471       C  0.34562276  0.34359363  0.80271969     0.07100
C1472       C  0.35795548  0.36820319  0.81863191    -0.13600
S1473       S  0.28542397  0.42409562  0.83101869    -0.30500
H1474       H  0.27248491  0.36793900  0.79993139     0.11300
S1475       S  0.37068011  0.31380937  0.79049994    -0.27600
H1476       H  0.38186649  0.36880544  0.82384609     0.08500
H1477       H  0.40779039  0.46976620  0.79288733     0.27000
H1478       H  0.25906806  0.41423988  0.81612326     0.21800
H1479       H  0.39680356  0.32413979  0.80549310     0.27100
H1480       H  0.33620974  0.37064074  0.88208749     0.15900
C1481       C  0.47417907  0.47409247  0.88998877    -0.11400
C1482       C  0.48925283  0.49830141  0.87703713     0.15200
C1483       C  0.47224406  0.52201310  0.86469171     0.02100
C1484       C  0.44064158  0.52192228  0.86749670    -0.15700
C1485       C  0.42498784  0.49910967  0.88339094    -0.10500
C1486       C  0.44269945  0.47389997  0.89340341     0.08800
C1487       C  0.52271980  0.49864259  0.87915532     0.09800
S1488       S  0.48926057  0.55312141  0.84500002    -0.24800
H1489       H  0.42859049  0.54021496  0.85712980     0.20100
S1490       S  0.42689867  0.44253219  0.91403615    -0.30500
H1491       H  0.48758218  0.45573021  0.89876724     0.10400
C1492       C  0.53706197  0.50538910  0.90656383     0.03600
C1493       C  0.56824077  0.50240704  0.90921150    -0.12800
C1494       C  0.58732225  0.49610930  0.88435068    -0.08500
C1495       C  0.57200591  0.48839788  0.85649818     0.07100
C1496       C  0.54027040  0.48952984  0.85465509    -0.13600
S1497       S  0.51593471  0.51795450  0.93893884    -0.30500
H1498       H  0.57685154  0.50445834  0.93169818     0.11300
S1499       S  0.58994498  0.47520991  0.82230405    -0.27600
H1500       H  0.52904661  0.48328396  0.83376212     0.08500
H1501       H  0.45407280  0.42924401  0.92362570     0.27000
H1502       H  0.54051239  0.52950003  0.95561426     0.21800
H1503       H  0.61344570  0.49612245  0.82147683     0.27100
H1504       H  0.51807194  0.55163646  0.85823858     0.15900
C1505       C  0.34015421  0.51698017  0.03152055    -0.11400
C1506       C  0.35308785  0.49273352  0.01618736     0.15200
C1507       C  0.36683827  0.46981070  0.03302756     0.02100
C1508       C  0.37127459  0.47369232  0.06394678    -0.15700
C1509       C  0.36094568  0.49942868  0.08016569    -0.10500
C1510       C  0.34385744  0.52109814  0.06278784     0.08800
C1511       C  0.36103935  0.49669131  0.98391201     0.09800
S1512       S  0.38182820  0.43616848  0.01565217    -0.24800
H1513       H  0.38398356  0.45648165  0.07566623     0.20100
S1514       S  0.33042068  0.55743003  0.07515913    -0.30500
H1515       H  0.33003333  0.53485231  0.01836796     0.10400
C1516       C  0.34001649  0.49934602  0.96032594     0.03600
C1517       C  0.35045994  0.50270213  0.93052532    -0.12800
C1518       C  0.38176821  0.50266545  0.92312336    -0.08500
C1519       C  0.40232719  0.50433098  0.94849916     0.07100
C1520       C  0.39153631  0.50024860  0.97762511    -0.13600
S1521       S  0.30008886  0.49674420  0.96785499    -0.30500
H1522       H  0.33396767  0.50319548  0.91248069     0.11300
S1523       S  0.44237067  0.51221081  0.94953345    -0.27600
H1524       H  0.40741690  0.50042364  0.99634906     0.08500
H1525       H  0.35944290  0.56884954  0.08108029     0.27000
H1526       H  0.29022469  0.50347352  0.93847283     0.21800
H1527       H  0.44486328  0.53281991  0.92632177     0.27100
H1528       H  0.36370465  0.43749345  0.98955699     0.15900
C1529       C  0.18365260  0.63648762  0.55579427    -0.11400
C1530       C  0.16571293  0.65097301  0.57719234     0.15200
C1531       C  0.13464856  0.65420615  0.57153596     0.02100
C1532       C  0.12205695  0.64189111  0.54527161    -0.15700
C1533       C  0.13902563  0.62377889  0.52487617    -0.10500
C1534       C  0.17117913  0.62355750  0.52958974     0.08800
C1535       C  0.18057956  0.66464982  0.60395246     0.09800
S1536       S  0.10957557  0.67335174  0.59729529    -0.24800
H1537       H  0.09830896  0.64609090  0.54184512     0.20100
S1538       S  0.19737937  0.60609239  0.50363581    -0.30500
H1539       H  0.20775885  0.63535661  0.55985363     0.10400
C1540       C  0.19273879  0.64696246  0.62731983     0.03600
C1541       C  0.20680664  0.66112772  0.65211537    -0.12800
C1542       C  0.20889725  0.69267939  0.65403896    -0.08500
C1543       C  0.19593227  0.71021115  0.63068036     0.07100
C1544       C  0.18256006  0.69601307  0.60581117    -0.13600
S1545       S  0.18962304  0.60643106  0.62587218    -0.30500
H1546       H  0.21629574  0.64759976  0.67000940     0.11300
S1547       S  0.19383449  0.75075437  0.63181026    -0.27600
H1548       H  0.17292601  0.70957779  0.58797186     0.08500
H1549       H  0.22446157  0.61562150  0.51736456     0.27000
H1550       H  0.20475182  0.60076862  0.65319791     0.21800
H1551       H  0.18522101  0.75220458  0.66230999     0.27100
H1552       H  0.12512013  0.66530170  0.62374374     0.15900
C1553       C  0.16318254  0.66769985  0.36554819    -0.11400
C1554       C  0.17695904  0.67072110  0.39390360     0.15200
C1555       C  0.20358740  0.68806717  0.39679668     0.02100
C1556       C  0.21534044  0.70260465  0.37146882    -0.15700
C1557       C  0.20167415  0.69946966  0.34296899    -0.10500
C1558       C  0.17493972  0.68211016  0.34021392     0.08800
C1559       C  0.16330803  0.65483213  0.41975589     0.09800
S1560       S  0.22389021  0.69210150  0.43196029    -0.24800
H1561       H  0.23579378  0.71584493  0.37388318     0.20100
S1562       S  0.15377023  0.67870661  0.30550517    -0.30500
H1563       H  0.14271519  0.65444706  0.36328468     0.10400
C1564       C  0.14775100  0.67005484  0.44267402     0.03600
C1565       C  0.13583476  0.65373231  0.46681971    -0.12800
C1566       C  0.13762831  0.62182973  0.46863593    -0.08500
C1567       C  0.15517171  0.60699610  0.44540310     0.07100
C1568       C  0.16657179  0.62374147  0.42126734    -0.13600
S1569       S  0.14220659  0.71026724  0.44067286    -0.30500
H1570       H  0.12408216  0.66599744  0.48436367     0.11300
S1571       S  0.16653861  0.56778507  0.44504752    -0.27600
H1572       H  0.17895337  0.61253932  0.40339831     0.08500
H1573       H  0.15792662  0.70885050  0.29688892     0.27000
H1574       H  0.12553203  0.71336592  0.46744877     0.21800
H1575       H  0.19273000  0.57089810  0.42744007     0.27100
H1576       H  0.21604333  0.66388576  0.44375449     0.15900
C1577       C  0.86816806  0.65960022  0.42296281    -0.11400
C1578       C  0.83701498  0.65462643  0.42231394     0.15200
C1579       C  0.82400323  0.63613383  0.44412763     0.02100
C1580       C  0.84230876  0.62290255  0.46588306    -0.15700
C1581       C  0.87395883  0.62829745  0.46824943    -0.10500
C1582       C  0.88694388  0.64738715  0.44538493     0.08800
C1583       C  0.81876448  0.66814563  0.39789233     0.09800
S1584       S  0.78395883  0.62867157  0.44569644    -0.24800
H1585       H  0.83131225  0.60797504  0.48155016     0.20100
S1586       S  0.92618587  0.65739087  0.43981317    -0.30500
H1587       H  0.87799581  0.67353471  0.40556109     0.10400
C1588       C  0.81319911  0.69932148  0.39704815     0.03600
C1589       C  0.79604427  0.71120808  0.37332565    -0.12800
C1590       C  0.78429563  0.69258350  0.35030316    -0.08500
C1591       C  0.78892916  0.66112463  0.35201542     0.07100
C1592       C  0.80639669  0.64935586  0.37550978    -0.13600
S1593       S  0.82786769  0.72395105  0.42623300    -0.30500
H1594       H  0.79267874  0.73530584  0.37215956     0.11300
S1595       S  0.77255797  0.63471894  0.32558280    -0.27600
H1596       H  0.81021883  0.62528885  0.37653116     0.08500
H1597       H  0.93419504  0.66458900  0.46940876     0.27000
H1598       H  0.81548915  0.75082462  0.41504869     0.21800
H1599       H  0.74567868  0.65109140  0.32141986     0.27100
H1600       H  0.77476766  0.65702913  0.43518986     0.15900
C1601       C  0.03743264  0.60131709  0.52131243    -0.11400
C1602       C  0.02280054  0.61828556  0.49936376     0.15200
C1603       C  0.04030119  0.63332103  0.47777460     0.02100
C1604       C  0.07171313  0.62943109  0.47740359    -0.15700
C1605       C  0.08743618  0.61214524  0.49935665    -0.10500
C1606       C  0.06889238  0.59820522  0.52209999     0.08800
C1607       C  0.98918491  0.61791686  0.49862974     0.09800
S1608       S  0.02384999  0.65746600  0.44954050    -0.24800
H1609       H  0.08310142  0.63937481  0.45858140     0.20100
S1610       S  0.08177428  0.57348270  0.55181765    -0.30500
H1611       H  0.02389293  0.58959842  0.53785572     0.10400
C1612       C  0.97325006  0.60354001  0.47525555     0.03600
C1613       C  0.94165038  0.60335841  0.47574996    -0.12800
C1614       C  0.92445675  0.61651677  0.49936202    -0.08500
C1615       C  0.94141817  0.62667965  0.52521058     0.07100
C1616       C  0.97313123  0.62891259  0.52347424    -0.13600
S1617       S  0.99302696  0.58406053  0.44530734    -0.30500
H1618       H  0.93017466  0.59334599  0.45682030     0.11300
S1619       S  0.92564183  0.63132746  0.56255288    -0.27600
H1620       H  0.98593985  0.63754049  0.54249899     0.08500
H1621       H  0.10803230  0.58863759  0.56033719     0.27000
H1622       H  0.96740408  0.57289783  0.43005425     0.21800
H1623       H  0.95041156  0.64585383  0.57627962     0.27100
H1624       H  0.99837001  0.66587101  0.46644543     0.15900
C1625       C  0.20139799  0.32398745  0.39137765    -0.11400
C1626       C  0.17046932  0.31873975  0.39549863     0.07200
C1627       C  0.15441604  0.30145937  0.37413959     0.02100
C1628       C  0.16934977  0.29064749  0.34864077    -0.15700
C1629       C  0.20049807  0.29577453  0.34407122    -0.10500
C1630       C  0.21672184  0.31227377  0.36636051     0.08800
C1631       C  0.15548559  0.33210634  0.42203743     0.09800
S1632       S  0.11488315  0.29234301  0.37813163    -0.24800
H1633       H  0.15624370  0.27787253  0.33231953     0.20100
S1634       S  0.25683219  0.31884188  0.36497477    -0.30500
H1635       H  0.21376968  0.33706559  0.40805983     0.10400
C1636       C  0.16058241  0.32086470  0.45098578     0.03600
C1637       C  0.14714720  0.33506600  0.47570201    -0.12800
C1638       C  0.12927041  0.36148222  0.47284087    -0.08500
C1639       C  0.12247253  0.37102732  0.44271861     0.07100
C1640       C  0.13595764  0.35640633  0.41805067    -0.13600
S1641       S  0.18352269  0.28765456  0.45639853    -0.30500
H1642       H  0.15023859  0.32446202  0.49722713     0.11300
S1643       S  0.09911552  0.40335802  0.43449417    -0.27600
H1644       H  0.13202389  0.36444324  0.39537861     0.08500
H1645       H  0.26377430  0.28815419  0.36101300     0.27000
H1646       H  0.18278033  0.28752495  0.48810721     0.21800
H1647       H  0.09583596  0.39830973  0.40330651     0.27100
H1648       H  0.11475856  0.29165074  0.40982069     0.15900
C1649       C  0.12974125  0.34383891  0.58277750    -0.11400
C1650       C  0.16129605  0.34175437  0.58300468     0.15200
C1651       C  0.17755535  0.35277408  0.55833991     0.02100
C1652       C  0.16203750  0.36524868  0.53408981    -0.15700
C1653       C  0.13003678  0.36515789  0.53174174    -0.10500
C1654       C  0.11380896  0.35617431  0.55818456     0.08800
C1655       C  0.17674008  0.32876642  0.60964082     0.09800
S1656       S  0.21824155  0.35116222  0.55597915    -0.24800
H1657       H  0.17544289  0.37368904  0.51572664     0.20100
S1658       S  0.07412731  0.36382225  0.56437409    -0.30500
H1659       H  0.11766867  0.33674660  0.60269658     0.10400
C1660       C  0.19318706  0.34678585  0.63022612     0.03600
C1661       C  0.20860791  0.33312082  0.65427064    -0.12800
C1662       C  0.20776064  0.30174980  0.65837012    -0.08500
C1663       C  0.19017632  0.28399217  0.63818870     0.07100
C1664       C  0.17532227  0.29762239  0.61395539    -0.13600
S1665       S  0.19402596  0.38721584  0.62618797    -0.30500
H1666       H  0.22142814  0.34693290  0.66993579     0.11300
S1667       S  0.18418596  0.24414786  0.64288511    -0.27600
H1668       H  0.16226295  0.28384100  0.59840687     0.08500
H1669       H  0.06996806  0.34464645  0.58911729     0.27000
H1670       H  0.21417409  0.39311139  0.65011306     0.21800
H1671       H  0.17960723  0.24611527  0.67423092     0.27100
H1672       H  0.22185598  0.32470976  0.57280058     0.15900
C1673       C  0.11235865  0.52101886  0.48161718    -0.11400
C1674       C  0.13150467  0.50832158  0.50302111     0.15200
C1675       C  0.14807427  0.52703162  0.52250252     0.02100
C1676       C  0.14485902  0.55815333  0.52046816    -0.15700
C1677       C  0.12654699  0.57210951  0.49816322    -0.10500
C1678       C  0.10953643  0.55218546  0.47867125     0.08800
C1679       C  0.13190762  0.47534591  0.50560162     0.09800
S1680       S  0.17269829  0.51257188  0.55153342    -0.24800
H1681       H  0.15627485  0.57086724  0.53773114     0.20100
S1682       S  0.08337546  0.56341612  0.44936279    -0.30500
H1683       H  0.09924785  0.50628242  0.46699514     0.10400
C1684       C  0.11471336  0.46066008  0.52745989     0.03600
C1685       C  0.11326390  0.42928949  0.52700728    -0.12800
C1686       C  0.12642631  0.41195432  0.50350976    -0.08500
C1687       C  0.14827301  0.42698858  0.48510055     0.07100
C1688       C  0.14932100  0.45856348  0.48543561    -0.13600
S1689       S  0.09280004  0.48190865  0.55453320    -0.30500
H1690       H  0.09906319  0.41833402  0.54332023     0.11300
S1691       S  0.17773948  0.40792482  0.46406676    -0.27600
H1692       H  0.16407767  0.47047635  0.47017777     0.08500
H1693       H  0.09950235  0.58807074  0.43864083     0.27000
H1694       H  0.07901394  0.45717763  0.56857040     0.21800
H1695       H  0.19304957  0.43347955  0.45347744     0.27100
H1696       H  0.18090307  0.48602241  0.53624628     0.15900
C1697       C  0.84533144  0.32534598  0.56019567    -0.11400
C1698       C  0.83701461  0.34511679  0.58326121     0.15200
C1699       C  0.84477583  0.37564126  0.58104436     0.02100
C1700       C  0.86077617  0.38575430  0.55596734    -0.15700
C1701       C  0.86994400  0.36624841  0.53213007    -0.10500
C1702       C  0.86144106  0.33505150  0.53496789     0.08800
C1703       C  0.82156154  0.33278420  0.61003242     0.09800
S1704       S  0.83400706  0.40322198  0.60907615    -0.24800
H1705       H  0.86448562  0.40963691  0.55514681     0.20100
S1706       S  0.86994709  0.30527370  0.50830656    -0.30500
H1707       H  0.83950083  0.30172872  0.56214253     0.10400
C1708       C  0.79189944  0.32130216  0.60826855     0.03600
C1709       C  0.77884249  0.30826044  0.63385872    -0.12800
C1710       C  0.79474963  0.30687444  0.66125022    -0.08500
C1711       C  0.82443616  0.31856917  0.66298902     0.07100
C1712       C  0.83745854  0.33144966  0.63736131    -0.13600
S1713       S  0.77055657  0.32376857  0.57357030    -0.30500
H1714       H  0.75617412  0.29914899  0.63262392     0.11300
S1715       S  0.84671770  0.31525365  0.69708728    -0.27600
H1716       H  0.86035656  0.34001271  0.63831244     0.08500
H1717       H  0.89906208  0.31475715  0.50098769     0.27000
H1718       H  0.74426226  0.30956165  0.58410687     0.21800
H1719       H  0.87362568  0.32746232  0.68561884     0.27100
H1720       H  0.80703107  0.38899718  0.61768448     0.15900
C1721       C  0.80757220  0.34928322  0.37598196    -0.11400
C1722       C  0.81214975  0.33076159  0.40108401     0.15200
C1723       C  0.80173006  0.30073468  0.40021476     0.02100
C1724       C  0.78797792  0.28962510  0.37394987    -0.15700
C1725       C  0.78388704  0.30793861  0.34862927    -0.10500
C1726       C  0.79351806  0.33824840  0.34976871     0.08800
C1727       C  0.83038113  0.34250136  0.42660788     0.09800
S1728       S  0.80691724  0.27499098  0.43110260    -0.24800
H1729       H  0.78096367  0.26625059  0.37300506     0.20100
S1730       S  0.79085067  0.36330993  0.31800660    -0.30500
H1731       H  0.81589516  0.37223222  0.37649929     0.10400
C1732       C  0.86157256  0.33755186  0.42800182     0.03600
C1733       C  0.87825840  0.34898528  0.45238300    -0.12800
C1734       C  0.86496446  0.36639187  0.47589851    -0.08500
C1735       C  0.83258439  0.36972191  0.47460496     0.07100
C1736       C  0.81621094  0.35833879  0.44980902    -0.13600
S1737       S  0.88020503  0.31599348  0.39875580    -0.30500
H1738       H  0.90161787  0.34255322  0.45322396     0.11300
S1739       S  0.81113326  0.38935389  0.50345500    -0.27600
H1740       H  0.79199799  0.36147828  0.44844343     0.08500
H1741       H  0.76651999  0.34908947  0.30337848     0.27000
H1742       H  0.90999776  0.32031774  0.40905955     0.21800
H1743       H  0.78216520  0.38569992  0.49083812     0.27100
H1744       H  0.80650617  0.29666210  0.45429863     0.15900
C1745       C  0.90371501  0.46483494  0.51928678    -0.11400
C1746       C  0.88220607  0.48003774  0.50194553     0.15200
C1747       C  0.86235148  0.46262612  0.48401638     0.02100
C1748       C  0.86595402  0.43140769  0.48234206    -0.15700
C1749       C  0.88452502  0.41520454  0.50275490    -0.10500
C1750       C  0.90379183  0.43334218  0.52178115     0.08800
C1751       C  0.88285397  0.51377127  0.50088760     0.09800
S1752       S  0.83078386  0.47838921  0.46359978    -0.24800
H1753       H  0.85275065  0.42036511  0.46519409     0.20100
S1754       S  0.92860030  0.41800800  0.55029221    -0.30500
H1755       H  0.92050551  0.47784142  0.53145590     0.10400
C1756       C  0.88638410  0.53191642  0.52688102     0.03600
C1757       C  0.89026470  0.56302686  0.52377851    -0.12800
C1758       C  0.88510104  0.57817375  0.49619412    -0.08500
C1759       C  0.88113972  0.55938581  0.46989261     0.07100
C1760       C  0.88168328  0.52795389  0.47281513    -0.13600
S1761       S  0.88435540  0.51629441  0.56440191    -0.30500
H1762       H  0.89567960  0.57607837  0.54371011     0.11300
S1763       S  0.87872984  0.57273173  0.43140597    -0.27600
H1764       H  0.88145223  0.51408356  0.45265868     0.08500
H1765       H  0.93466291  0.44490829  0.56611241     0.27000
H1766       H  0.88433870  0.54376904  0.58037676     0.21800
H1767       H  0.86339271  0.54759558  0.41935260     0.27100
H1768       H  0.82538503  0.50178114  0.48444325     0.15900
C1769       C  0.96976791  0.35417708  0.51595907    -0.11400
C1770       C  0.98339100  0.36704323  0.49084117     0.15200
C1771       C  0.96493424  0.37970116  0.46842192     0.02100
C1772       C  0.93398875  0.38295391  0.47363174    -0.15700
C1773       C  0.91934254  0.37101561  0.49941495    -0.10500
C1774       C  0.93842142  0.35537698  0.52067848     0.08800
C1775       C  0.01689825  0.36996449  0.49091492     0.09800
S1776       S  0.97951229  0.39234326  0.43271960    -0.24800
H1777       H  0.92080461  0.39486251  0.45688601     0.20100
S1778       S  0.92654799  0.34047545  0.55664563    -0.30500
H1779       H  0.98427272  0.34472929  0.53320228     0.10400
C1780       C  0.03090061  0.39830389  0.49215993     0.03600
C1781       C  0.06233258  0.40016134  0.49413671    -0.12800
C1782       C  0.08116979  0.37455292  0.49817581    -0.08500
C1783       C  0.06641228  0.34584171  0.49686856     0.07100
C1784       C  0.03483405  0.34411169  0.49305920    -0.13600
S1785       S  0.00894904  0.43268197  0.49283511    -0.30500
H1786       H  0.07168390  0.42228382  0.49141552     0.11300
S1787       S  0.08649601  0.31089148  0.50241924    -0.27600
H1788       H  0.02371456  0.32240429  0.49281372     0.08500
H1789       H  0.94986847  0.31919739  0.55983978     0.27000
H1790       H  0.03250897  0.45215932  0.50167465     0.21800
H1791       H  0.06288143  0.29118310  0.49439258     0.27100
H1792       H  0.00544728  0.37407672  0.43290999     0.15900
C1793       C  0.79530076  0.68711589  0.59292356    -0.11400
C1794       C  0.82018295  0.66816730  0.59753210     0.15200
C1795       C  0.82900698  0.66114748  0.62729023     0.02100
C1796       C  0.81287958  0.67313977  0.65166687    -0.15700
C1797       C  0.78822641  0.69257870  0.64724937    -0.10500
C1798       C  0.77901098  0.69901557  0.61731976     0.08800
C1799       C  0.83571701  0.65487899  0.57100155     0.09800
S1800       S  0.86085780  0.63726338  0.63564645    -0.24800
H1801       H  0.82040214  0.66805581  0.67434918     0.20100
S1802       S  0.74590287  0.72096047  0.60861373    -0.30500
H1803       H  0.78807445  0.69206184  0.57011112     0.10400
C1804       C  0.83121893  0.62477690  0.56261706     0.03600
C1805       C  0.84793677  0.61242479  0.53882231    -0.12800
C1806       C  0.87071172  0.62881301  0.52330989    -0.08500
C1807       C  0.87211680  0.66043014  0.53003126     0.07100
C1808       C  0.85530315  0.67262483  0.55408173    -0.13600
S1809       S  0.80315508  0.60225356  0.58155380    -0.30500
H1810       H  0.84178482  0.59001593  0.53174243     0.11300
S1811       S  0.89582987  0.68599660  0.50945791    -0.27600
H1812       H  0.85777093  0.69612419  0.56023234     0.08500
H1813       H  0.72870574  0.70997801  0.63280230     0.27000
H1814       H  0.81053511  0.57459548  0.56782735     0.21800
H1815       H  0.88490661  0.71305349  0.52191491     0.27100
H1816       H  0.87817927  0.64564572  0.61059814     0.15900
C1817       C  0.67838410  0.55949188  0.85799053    -0.11400
C1818       C  0.65967332  0.57551773  0.83847281     0.15200
C1819       C  0.62907934  0.56757077  0.83617838     0.02100
C1820       C  0.61785345  0.54392331  0.85337263    -0.15700
C1821       C  0.63662420  0.52547139  0.87168313    -0.10500
C1822       C  0.66765670  0.53500485  0.87464653     0.08800
C1823       C  0.67228163  0.60157134  0.82211652     0.09800
S1824       S  0.60286040  0.58691404  0.81177397    -0.24800
H1825       H  0.59388716  0.54034643  0.85160788     0.20100
S1826       S  0.69546733  0.51907973  0.89994220    -0.30500
H1827       H  0.70177860  0.56637336  0.86044442     0.10400
C1828       C  0.66572060  0.63128550  0.83109476     0.03600
C1829       C  0.67745912  0.65534357  0.81453119    -0.12800
C1830       C  0.69573790  0.65045802  0.78902747    -0.08500
C1831       C  0.70181405  0.62044249  0.77987799     0.07100
C1832       C  0.69044249  0.59644319  0.79677596    -0.13600
S1833       S  0.64313170  0.63855577  0.86422679    -0.30500
H1834       H  0.67296365  0.67814194  0.82200771     0.11300
S1835       S  0.72262213  0.61108734  0.74625074    -0.27600
H1836       H  0.69510144  0.57352796  0.78966560     0.08500
H1837       H  0.68916725  0.48870237  0.89494365     0.27000
H1838       H  0.64152783  0.66999101  0.86104383     0.21800
H1839       H  0.70971096  0.63412804  0.72881786     0.27100
H1840       H  0.62393528  0.59436713  0.78940155     0.15900
C1841       C  0.62134531  0.80044242  0.64584305    -0.11400
C1842       C  0.59959451  0.81348078  0.66471770     0.15200
C1843       C  0.60146375  0.80922928  0.69612668     0.02100
C1844       C  0.62635269  0.79424821  0.70821072    -0.15700
C1845       C  0.64918280  0.78249625  0.68958850    -0.10500
C1846       C  0.64601659  0.78468746  0.65787828     0.08800
C1847       C  0.57577377  0.83234970  0.65121659     0.09800
S1848       S  0.57324649  0.82311676  0.72200654    -0.24800
H1849       H  0.62821943  0.79247953  0.73250849     0.20100
S1850       S  0.67271714  0.76718693  0.63246213    -0.30500
H1851       H  0.61925999  0.80326009  0.62168763     0.10400
C1852       C  0.57550002  0.86363662  0.65539147     0.03600
C1853       C  0.55135509  0.88045245  0.64410437    -0.12800
C1854       C  0.52761562  0.86726080  0.62692395    -0.08500
C1855       C  0.52858954  0.83510559  0.62290119     0.07100
C1856       C  0.55259888  0.81847291  0.63497924    -0.13600
S1857       S  0.60613565  0.88231923  0.67511516    -0.30500
H1858       H  0.55108097  0.90402229  0.64976583     0.11300
S1859       S  0.50030874  0.81417889  0.60177377    -0.27600
H1860       H  0.55329673  0.79425978  0.63217507     0.08500
H1861       H  0.65666913  0.77266037  0.60561853     0.27000
H1862       H  0.59562922  0.91196922  0.67165181     0.21800
H1863       H  0.51369654  0.78553593  0.60323051     0.27100
H1864       H  0.54868534  0.82102312  0.70190209     0.15900
C1865       C  0.64657754  0.82397327  0.93468312    -0.11400
C1866       C  0.66213012  0.84408339  0.91634225     0.15200
C1867       C  0.65941598  0.87509841  0.92212038     0.02100
C1868       C  0.64288726  0.88510973  0.94709810    -0.15700
C1869       C  0.63097475  0.86499272  0.96881485    -0.10500
C1870       C  0.63046612  0.83383576  0.96011838     0.08800
C1871       C  0.67917452  0.83194563  0.89018752     0.09800
S1872       S  0.67720232  0.90315451  0.89892666    -0.24800
H1873       H  0.64028193  0.90912655  0.94945083     0.20100
S1874       S  0.61135222  0.80531556  0.98157069    -0.30500
H1875       H  0.64752727  0.80020197  0.92918615     0.10400
C1876       C  0.70620382  0.81549776  0.89396398     0.03600
C1877       C  0.72058495  0.80289903  0.86857449    -0.12800
C1878       C  0.70828734  0.80634485  0.83956149    -0.08500
C1879       C  0.68192683  0.82396770  0.83587412     0.07100
C1880       C  0.66753863  0.83621551  0.86113736    -0.13600
S1881       S  0.72217597  0.81046488  0.93114296    -0.30500
H1882       H  0.74074867  0.78941274  0.87140084     0.11300
S1883       S  0.66563873  0.83186493  0.79941041    -0.27600
H1884       H  0.64696997  0.84909778  0.85816135     0.08500
H1885       H  0.61103119  0.78276504  0.95914342     0.27000
H1886       H  0.74742384  0.79352425  0.92204918     0.21800
H1887       H  0.69323825  0.83204347  0.78376491     0.27100
H1888       H  0.70259643  0.88574012  0.89129213     0.15900
C1889       C  0.79295180  0.89322666  0.68124415    -0.11400
C1890       C  0.82440896  0.89519042  0.67829695     0.15200
C1891       C  0.84287266  0.87293027  0.69156130     0.02100
C1892       C  0.82948460  0.84912536  0.70722293    -0.15700
C1893       C  0.79797172  0.84649757  0.70899720    -0.10500
C1894       C  0.77956081  0.86912781  0.69628307     0.08800
C1895       C  0.83727291  0.92077961  0.66139462     0.09800
S1896       S  0.88345352  0.87281648  0.68792611    -0.24800
H1897       H  0.84368264  0.83157855  0.71649099     0.20100
S1898       S  0.73884414  0.86838844  0.69828714    -0.30500
H1899       H  0.77873021  0.91046260  0.67143557     0.10400
C1900       C  0.83384583  0.92302492  0.63007447     0.03600
C1901       C  0.84682139  0.94731228  0.61492652    -0.12800
C1902       C  0.86488973  0.96943880  0.62979826    -0.08500
C1903       C  0.86607794  0.96766354  0.66222746     0.07100
C1904       C  0.85266563  0.94338033  0.67709163    -0.13600
S1905       S  0.81347065  0.89443894  0.60905122    -0.30500
H1906       H  0.84264435  0.94839839  0.59106852     0.11300
S1907       S  0.88198470  0.99564304  0.68756732    -0.27600
H1908       H  0.85416747  0.94205988  0.70145808     0.08500
H1909       H  0.73721924  0.85273063  0.72569254     0.27000
H1910       H  0.82011631  0.90507917  0.58001704     0.21800
H1911       H  0.90839927  0.00216642  0.67196475     0.27100
H1912       H  0.88428138  0.88574693  0.65908467     0.15900
C1913       C  0.92817887  0.66652425  0.86550336    -0.11400
C1914       C  0.92378436  0.66415248  0.83445648     0.15200
C1915       C  0.94487224  0.64829178  0.81698966     0.02100
C1916       C  0.96848253  0.63317012  0.83128794    -0.15700
C1917       C  0.97230106  0.63294881  0.86310470    -0.10500
C1918       C  0.95268664  0.65265770  0.88005134     0.08800
C1919       C  0.89679663  0.67851081  0.82116356     0.09800
S1920       S  0.94269823  0.64593273  0.77638499    -0.24800
H1921       H  0.98393097  0.62086001  0.81715215     0.20100
S1922       S  0.95956089  0.66547880  0.91835700    -0.30500
H1923       H  0.91254525  0.68033771  0.87822153     0.10400
C1924       C  0.87171134  0.66125228  0.81206945     0.03600
C1925       C  0.84635349  0.67570337  0.80005308    -0.12800
C1926       C  0.84523033  0.70725345  0.79705527    -0.08500
C1927       C  0.87047899  0.72448078  0.80672767     0.07100
C1928       C  0.89590487  0.70991917  0.81857275    -0.13600
S1929       S  0.87176144  0.62081858  0.81625148    -0.30500
H1930       H  0.82716405  0.66220845  0.79308166     0.11300
S1931       S  0.87242406  0.76475582  0.80328981    -0.27600
H1932       H  0.91525251  0.72314896  0.82575127     0.08500
H1933       H  0.93220254  0.68071858  0.92344006     0.27000
H1934       H  0.84219448  0.61570415  0.80566428     0.21800
H1935       H  0.84909319  0.76950351  0.82426544     0.27100
H1936       H  0.92747283  0.67329444  0.77194670     0.15900
loop_ 
_geom_bond_atom_site_label_1 
_geom_bond_atom_site_label_2 
_geom_bond_distance 
_geom_bond_site_symmetry_2 
_ccdc_geom_bond_type 
O1           C17   1.276       .  A
O1           Zn7   2.034       .  S
C2           O18   1.277       .  A
C2           O15   1.274       .  A
C2         C1797   1.488       .  S
O3           C16   1.276       .  A
O3          Cd10   2.085       .  S
O4           C22   1.272       .  A
O4          Cd13   2.049       .  S
O5           C19   1.274       .  A
O5           Cd9   2.063       .  S
O6           C17   1.274       .  A
O6           Cd9   2.063       .  S
Zn7          O18   2.037       .  S
Zn7          O20   1.995       .  S
Zn7          O12   1.942       .  S
O8           C19   1.272       .  A
O8          Cd13   2.058       .  S
Cd9          O11   2.054       .  S
Cd9          O12   1.990       .  S
Cd10         O14   2.104       .  S
Cd10         O23   2.095       .  S
Cd10         O12   2.021       .  S
O11          C21   1.273       .  A
O12         Cd13   1.992       .  S
Cd13         O15   2.069       .  S
O14          C21   1.278       .  A
C16          O20   1.273       .  A
C16        C1926   1.488       .  S
C17        C1830   1.488       .  S
C19        C1845   1.481       .  S
C21        C1878   1.480       .  S
C22          O23   1.278       .  A
C22        C1893   1.473       .  S
C24        C1701   1.570       .  S
C24        C1734   1.588       .  S
C24        C1749   1.593       .  S
C24        C1773   1.582       .  S
C25        C1638   1.571       .  S
C25        C1653   1.577       .  S
C25        C1686   1.571       .  S
C25        C1782   1.579       .  S
C26        C1581   1.572       .  S
C26        C1614   1.573       .  S
C26        C1758   1.581       .  S
C26        C1806   1.589       .  S
C27        C1533   1.585       .  S
C27        C1566   1.583       .  S
C27        C1605   1.587       .  S
C27        C1677   1.566       .  S
C28        C1446   1.594       .  S
C28        C1461   1.582       .  S
C28        C1485   1.570       .  S
C28        C1518   1.582       .  S
C29        C1374   1.603       .  S
C29        C1398   1.569       .  S
C29        C1422   1.591       .  S
C29        C1509   1.588       .  S
C30        C1317   1.579       .  S
C30        C1341   1.585       .  S
C30        C1494   1.587       .  S
C30        C1821   1.582       .  S
C31        C1278   1.589       .  S
C31        C1293   1.587       .  S
C31        C1350   1.588       .  S
C31        C1413   1.573       .  S
C32        C1173   1.588       .  S
C32        C1197   1.576       .  S
C32        C1221   1.576       .  S
C32        C1254   1.590       .  S
C33        C1101   1.572       .  S
C33        C1125   1.579       .  S
C33        C1149   1.565       .  S
C33        C1245   1.581       .  S
C34        C1062   1.582       .  S
C34        C1086   1.582       .  S
C34        C1230   1.579       .  S
C34        C1854   1.576       .  S
C35        C1014   1.585       .  S
C35        C1029   1.565       .  S
C35        C1077   1.586       .  S
C35        C1158   1.571       .  S
O36          C52   1.275       .  A
O36         Zn42   2.027       .  S
C37          O53   1.275       .  A
C37          O50   1.273       .  A
C37        C1038   1.476       .  S
O38          C51   1.278       .  A
O38         Cd45   2.099       .  S
O39          C57   1.272       .  A
O39         Cd48   2.037       .  S
O40          C54   1.277       .  A
O40         Cd44   2.079       .  S
O41          C52   1.275       .  A
O41         Cd44   2.073       .  S
Zn42         O53   2.034       .  S
Zn42         O55   2.006       .  S
Zn42         O47   1.947       .  S
O43          C54   1.274       .  A
O43         Cd48   2.075       .  S
Cd44         O46   2.046       .  S
Cd44         O47   1.996       .  S
Cd45         O49   2.103       .  S
Cd45         O58   2.113       .  S
Cd45         O47   2.029       .  S
O46          C56   1.272       .  A
O47         Cd48   1.984       .  S
Cd48         O50   2.060       .  S
O49          C56   1.280       .  A
C51          O55   1.273       .  A
C51         C981   1.479       .  S
C52        C1662   1.487       .  S
C54        C1470   1.495       .  S
C56         C957   1.481       .  S
C57          O58   1.279       .  A
C57         C933   1.500       .  S
O59          C75   1.275       .  A
O59         Zn65   2.027       .  S
C60          O76   1.274       .  A
C60          O73   1.274       .  A
C60        C1557   1.481       .  S
O61          C74   1.278       .  A
O61         Cd68   2.097       .  S
O62          C80   1.273       .  A
O62         Cd71   2.052       .  S
O63          C77   1.273       .  A
O63         Cd67   2.055       .  S
O64          C75   1.273       .  A
O64         Cd67   2.056       .  S
Zn65         O76   2.020       .  S
Zn65         O78   2.005       .  S
Zn65         O70   1.942       .  S
O66          C77   1.276       .  A
O66         Cd71   2.082       .  S
Cd67         O69   2.045       .  S
Cd67         O70   1.989       .  S
Cd68         O72   2.101       .  S
Cd68         O81   2.100       .  S
Cd68         O70   2.023       .  S
O69          C79   1.271       .  A
O70         Cd71   1.998       .  S
Cd71         O73   2.070       .  S
O72          C79   1.278       .  A
C74          O78   1.273       .  A
C74         C918   1.481       .  S
C75        C1389   1.475       .  S
C77        C1206   1.483       .  S
C79         C885   1.475       .  S
C80          O81   1.279       .  A
C80         C861   1.474       .  S
O82          C98   1.274       .  A
O82         Zn88   2.031       .  S
C83          O99   1.274       .  A
C83          O96   1.274       .  A
C83         C837   1.484       .  S
O84          C97   1.276       .  A
O84         Cd91   2.082       .  S
O85         C103   1.272       .  A
O85         Cd94   2.062       .  S
O86         C100   1.276       .  A
O86         Cd90   2.072       .  S
O87          C98   1.274       .  A
O87         Cd90   2.064       .  S
Zn88         O99   2.021       .  S
Zn88        O101   1.994       .  S
Zn88         O93   1.944       .  S
O89         C100   1.273       .  A
O89         Cd94   2.060       .  S
Cd90         O92   2.051       .  S
Cd90         O93   1.993       .  S
Cd91         O95   2.091       .  S
Cd91        O104   2.085       .  S
Cd91         O93   2.015       .  S
O92         C102   1.272       .  A
O93         Cd94   1.993       .  S
Cd94         O96   2.060       .  S
O95         C102   1.277       .  A
C97         O101   1.272       .  A
C97        C1134   1.471       .  S
C98         C813   1.486       .  S
C100        C789   1.480       .  S
C102       C1302   1.472       .  S
C103        O104   1.276       .  A
C103       C1725   1.471       .  S
O105        C121   1.275       .  A
O105       Zn111   2.022       .  S
C106        O122   1.275       .  A
C106        O119   1.273       .  A
C106       C1710   1.477       .  S
O107        C120   1.278       .  A
O107       Cd114   2.103       .  S
O108        C126   1.270       .  A
O108       Cd117   2.038       .  S
O109        C123   1.275       .  A
O109       Cd113   2.078       .  S
O110        C121   1.273       .  A
O110       Cd113   2.065       .  S
Zn111       O122   2.025       .  S
Zn111       O124   1.994       .  S
Zn111       O116   1.941       .  S
O112        C123   1.274       .  A
O112       Cd117   2.061       .  S
Cd113       O115   2.049       .  S
Cd113       O116   1.997       .  S
Cd114       O118   2.099       .  S
Cd114       O127   2.108       .  S
Cd114       O116   2.026       .  S
O115        C125   1.272       .  A
O116       Cd117   1.987       .  S
Cd117       O119   2.064       .  S
O118        C125   1.278       .  A
C120        O124   1.273       .  A
C120        C765   1.497       .  S
C121       C1005   1.483       .  S
C123       C1326   1.474       .  S
C125        C741   1.473       .  S
C126        O127   1.279       .  A
C126        C726   1.481       .  S
C128        C654   1.576   1_556  S
C128        C678   1.581       .  S
C128        C702   1.589   1_556  S
C128       C1869   1.586       .  S
C129        C621   1.578       .  S
C129        C693   1.589       .  S
C129        C750   1.583       .  S
C129        C822   1.584   1_556  S
C130        C573   1.577   1_554  S
C130        C597   1.572       .  S
C130        C669   1.579   1_554  S
C130        C894   1.578       .  S
C131        C549   1.578       .  S
C131        C606   1.575       .  S
C131        C630   1.582       .  S
C131        C942   1.583   1_554  S
O132        C148   1.277       .  A
O132       Zn138   2.042       .  S
C133        O149   1.276       .  A
C133        O146   1.276       .  A
C133       C1437   1.481       .  S
O134        C147   1.277       .  A
O134       Cd141   2.093       .  S
O135        C153   1.273       .  A
O135       Cd144   2.057       .  S
O136        C150   1.273       .  A
O136       Cd140   2.062       .  S
O137        C148   1.272       .  A
O137       Cd140   2.053       .  S
Zn138       O149   2.031       .  S
Zn138       O151   1.997       .  S
Zn138       O143   1.946       .  S
O139        C150   1.276       .  A
O139       Cd144   2.085       .  S
Cd140       O142   2.054       .  S
Cd140       O143   1.986       .  S
Cd141       O145   2.097       .  S
Cd141       O154   2.097       .  S
Cd141       O143   2.022       .  S
O142        C152   1.273       .  A
O143       Cd144   2.001       .  S
Cd144       O146   2.079       .  S
O145        C152   1.277       .  A
C147        O151   1.272       .  A
C147        C525   1.473       .  S
C148       C1542   1.486       .  S
C150       C1053   1.483       .  S
C152        C501   1.497       .  S
C153        O154   1.279       .  A
C153        C582   1.482       .  S
C155        C453   1.582       .  S
C155        C486   1.583       .  S
C155        C774   1.584   1_565  S
C155       C1902   1.578       .  S
C156        C438   1.590       .  S
C156        C477   1.587   1_545  S
C156        C510   1.586   1_545  S
C156        C990   1.568       .  S
C157        C381   1.584   1_545  S
C157        C405   1.578       .  S
C157        C462   1.586       .  S
C157        C846   1.575       .  S
C158        C366   1.585       .  S
C158        C414   1.597       .  S
C158        C429   1.568       .  S
C158        C870   1.579   1_545  S
O159        C175   1.276       .  A
O159       Zn165   2.025       .  S
C160        O176   1.277       .  A
C160        O173   1.275       .  A
C160       C1269   1.492       .  S
O161        C174   1.277       .  A
O161       Cd168   2.094       .  S
O162        C180   1.272       .  A
O162       Cd171   2.045       .  S
O163        C177   1.277       .  A
O163       Cd167   2.084       .  S
O164        C175   1.276       .  A
O164       Cd167   2.064       .  S
Zn165       O176   2.049       .  S
Zn165       O178   2.019       .  S
Zn165       O170   1.950       .  S
O166        C177   1.275       .  A
O166       Cd171   2.078       .  S
Cd167       O169   2.061       .  S
Cd167       O170   1.995       .  S
Cd168       O172   2.112       .  S
Cd168       O181   2.105       .  S
Cd168       O170   2.024       .  S
O169        C179   1.271       .  A
O170       Cd171   1.995       .  S
Cd171       O173   2.074       .  S
O172        C179   1.281       .  A
C174        O178   1.276       .  A
C174        C333   1.493       .  S
C175       C1590   1.482       .  S
C177       C1182   1.485       .  S
C179        C390   1.502       .  S
C180        O181   1.280       .  A
C180        C645   1.480       .  S
C182        C285   1.582   1_455  S
C182        C309   1.581       .  S
C182        C534   1.576       .  S
C182       C1917   1.574   1_455  S
C183        C261   1.584       .  S
C183        C318   1.587       .  S
C183        C342   1.581       .  S
C183        C909   1.582   1_655  S
C184        C237   1.567       .  S
C184        C294   1.583       .  S
C184        C717   1.576   1_455  S
C184        C966   1.572       .  S
C185        C222   1.582   1_655  S
C185        C246   1.575       .  S
C185        C270   1.574       .  S
C185        C798   1.571       .  S
O186        C202   1.277       .  A
O186       Zn192   2.042       .  S
C187        O203   1.278       .  A
C187        O200   1.271       .  A
C187        C213   1.489       .  S
O188        C201   1.276       .  A
O188       Cd195   2.085       .  S
O189        C207   1.271       .  A
O189       Cd198   2.035       .  S
O190        C204   1.273       .  A
O190       Cd194   2.071       .  S
O191        C202   1.272       .  A
O191       Cd194   2.044       .  S
Zn192       O203   2.040       .  S
Zn192       O205   2.016       .  S
Zn192       O197   1.948       .  S
O193        C204   1.274       .  A
O193       Cd198   2.066       .  S
Cd194       O196   2.034       .  S
Cd194       O197   1.982       .  S
Cd195       O199   2.095       .  S
Cd195       O208   2.090       .  S
Cd195       O197   2.020       .  S
O196        C206   1.271       .  A
O197       Cd198   1.981       .  S
Cd198       O200   2.048       .  S
O199        C206   1.277       .  A
C201        O205   1.274       .  A
C201       C1365   1.477       .  S
C202        C558   1.476       .  S
C204        C357   1.488       .  S
C206       C1110   1.478       .  S
C207        O208   1.277       .  A
C207       C1629   1.492       .  S
C209        C210   1.400       .  A
C209        C214   1.402       .  A
C209        H219   1.083       .  S
C210        C215   1.479       .  S
C210        C211   1.409       .  A
C211        C212   1.400       .  A
C211        S216   1.804       .  S
C212        C213   1.408       .  A
C212        H217   1.084       .  S
C213        C214   1.420       .  A
C214        S218   1.810       .  S
C215        C220   1.397       .  A
C215        C224   1.397       .  A
S216        H232   1.406       .  S
S218        H229   1.407       .  S
C220        C221   1.394       .  A
C220        S225   1.808       .  S
C221        C222   1.422       .  A
C221        H226   1.076       .  S
C222        C223   1.443       .  A
C223        C224   1.406       .  A
C223        S227   1.813       .  S
C224        H228   1.084       .  S
S225        H230   1.407       .  S
S227        H231   1.394       .  S
C233        C234   1.392       .  A
C233        C238   1.399       .  A
C233        H243   1.083       .  S
C234        C239   1.472   1_556  S
C234        C235   1.405       .  A
C235        C236   1.399       .  A
C235        S240   1.805       .  S
C236        C237   1.418       .  A
C236        H241   1.077       .  S
C237        C238   1.436       .  A
C238        S242   1.807       .  S
C239        C244   1.398       .  A
C239        C248   1.392   1_455  A
S240        H256   1.404   1_456  S
S242        H253   1.407       .  S
C244        C245   1.400       .  A
C244        S249   1.807       .  S
C245        C246   1.425   1_455  A
C245        H250   1.077       .  S
C246        C247   1.436       .  A
C247        C248   1.400       .  A
C247        S251   1.804       .  S
C248        H252   1.083       .  S
S249        H254   1.407       .  S
S251        H255   1.406       .  S
C257        C258   1.405       .  A
C257        C262   1.409       .  A
C257        H267   1.082       .  S
C258        C263   1.505       .  S
C258        C259   1.408   1_655  A
C259        C260   1.395       .  A
C259        S264   1.807       .  S
C260        C261   1.426   1_455  A
C260        H265   1.076       .  S
C261        C262   1.438       .  A
C262        S266   1.808       .  S
C263        C268   1.409   1_655  A
C263        C272   1.401       .  A
S264        H280   1.407       .  S
S266        H277   1.407       .  S
C268        C269   1.402       .  A
C268        S273   1.810       .  S
C269        C270   1.420   1_455  A
C269        H274   1.082       .  S
C270        C271   1.442       .  A
C271        C272   1.406       .  A
C271        S275   1.811       .  S
C272        H276   1.082       .  S
S273        H278   1.407       .  S
S275        H279   1.408       .  S
C281        C282   1.397   1_655  A
C281        C286   1.405       .  A
C281        H291   1.085       .  S
C282        C287   1.493   1_455  S
C282        C283   1.404       .  A
C283        C284   1.401       .  A
C283        S288   1.805       .  S
C284        C285   1.420   1_455  A
C284        H289   1.075       .  S
C285        C286   1.445       .  A
C286        S290   1.805       .  S
C287        C292   1.405       .  A
C287        C296   1.400   1_655  A
S288        H304   1.406       .  S
S290        H301   1.402       .  S
C292        C293   1.399       .  A
C292        S297   1.810       .  S
C293        C294   1.419   1_655  A
C293        H298   1.072       .  S
C294        C295   1.444       .  A
C295        C296   1.411       .  A
C295        S299   1.811       .  S
C296        H300   1.084       .  S
S297        H302   1.407       .  S
S299        H303   1.394       .  S
C305        C306   1.402   1_455  A
C305        C310   1.399       .  A
C305        H315   1.082       .  S
C306        C311   1.506   1_556  S
C306        C307   1.415       .  A
C307        C308   1.401       .  A
C307        S312   1.805       .  S
C308        C309   1.422   1_655  A
C308        H313   1.078       .  S
C309        C310   1.438       .  A
C310        S314   1.806       .  S
C311        C316   1.413   1_655  A
C311        C320   1.403       .  A
S312        H328   1.407       .  S
S314        H325   1.398       .  S
C316        C317   1.401       .  A
C316        S321   1.813       .  S
C317        C318   1.422   1_455  A
C317        H322   1.077       .  S
C318        C319   1.432       .  A
C319        C320   1.407       .  A
C319        S323   1.808       .  S
C320        H324   1.081       .  S
S321        H326   1.407       .  S
S323        H327   1.407       .  S
C329        C330   1.402       .  A
C329        C334   1.405       .  A
C329        H339   1.084       .  S
C330        C335   1.485       .  S
C330        C331   1.411       .  A
C331        C332   1.399       .  A
C331        S336   1.804       .  S
C332        C333   1.408       .  A
C332        H337   1.084       .  S
C333        C334   1.419       .  A
C334        S338   1.798       .  S
C335        C340   1.401       .  A
C335        C344   1.396       .  A
S336        H352   1.405       .  S
S338        H349   1.407       .  S
C340        C341   1.403       .  A
C340        S345   1.807       .  S
C341        C342   1.422       .  A
C341        H346   1.076       .  S
C342        C343   1.436       .  A
C343        C344   1.408       .  A
C343        S347   1.807       .  S
C344        H348   1.083       .  S
S345        H350   1.407       .  S
S347        H351   1.407       .  S
C353        C354   1.403       .  A
C353        C358   1.402       .  A
C353        H363   1.084       .  S
C354        C359   1.482       .  S
C354        C355   1.410       .  A
C355        C356   1.397       .  A
C355        S360   1.805       .  S
C356        C357   1.408       .  A
C356        H361   1.084       .  S
C357        C358   1.418       .  A
C358        S362   1.802       .  S
C359        C364   1.399       .  A
C359        C368   1.395       .  A
S360        H376   1.406       .  S
S362        H373   1.407       .  S
C364        C365   1.398       .  A
C364        S369   1.807       .  S
C365        C366   1.425       .  A
C365        H370   1.082       .  S
C366        C367   1.444       .  A
C367        C368   1.406       .  A
C367        S371   1.814       .  S
C368        H372   1.083       .  S
S369        H374   1.407       .  S
S371        H375   1.407       .  S
C377        C378   1.398       .  A
C377        C382   1.411       .  A
C377        H387   1.082       .  S
C378        C383   1.485       .  S
C378        C379   1.403       .  A
C379        C380   1.396       .  A
C379        S384   1.807       .  S
C380        C381   1.423       .  A
C380        H385   1.077       .  S
C381        C382   1.436       .  A
C382        S386   1.810       .  S
C383        C388   1.408       .  A
C383        C392   1.397       .  A
S384        H400   1.404       .  S
S386        H397   1.406       .  S
C388        C389   1.409       .  A
C388        S393   1.805       .  S
C389        C390   1.411       .  A
C389        H394   1.082       .  S
C390        C391   1.426       .  A
C391        C392   1.399       .  A
C391        S395   1.801       .  S
C392        H396   1.084       .  S
S393        H398   1.407       .  S
S395        H399   1.402       .  S
C401        C402   1.394       .  A
C401        C406   1.403       .  A
C401        H411   1.083       .  S
C402        C407   1.483   1_655  S
C402        C403   1.407   1_545  A
C403        C404   1.397       .  A
C403        S408   1.805       .  S
C404        C405   1.417   1_565  A
C404        H409   1.078       .  S
C405        C406   1.439       .  A
C406        S410   1.810       .  S
C407        C412   1.402       .  A
C407        C416   1.391   1_545  A
S408        H424   1.407   1_655  S
S410        H421   1.407       .  S
C412        C413   1.405       .  A
C412        S417   1.807       .  S
C413        C414   1.427       .  A
C413        H418   1.076       .  S
C414        C415   1.439   1_545  A
C415        C416   1.398       .  A
C415        S419   1.801       .  S
C416        H420   1.084       .  S
S417        H422   1.407       .  S
S419        H423   1.407       .  S
C425        C426   1.406   1_565  A
C425        C430   1.403       .  A
C425        H435   1.082       .  S
C426        C431   1.509       .  S
C426        C427   1.411       .  A
C427        C428   1.399       .  A
C427        S432   1.807       .  S
C428        C429   1.420       .  A
C428        H433   1.084       .  S
C429        C430   1.442   1_545  A
C430        S434   1.813       .  S
C431        C436   1.411       .  A
C431        C440   1.405   1_545  A
S432        H448   1.406       .  S
S434        H445   1.397       .  S
C436        C437   1.402       .  A
C436        S441   1.810       .  S
C437        C438   1.424       .  A
C437        H442   1.080       .  S
C438        C439   1.436   1_545  A
C439        C440   1.403       .  A
C439        S443   1.798       .  S
C440        H444   1.083       .  S
S441        H446   1.407       .  S
S443        H447   1.405       .  S
C449        C450   1.394       .  A
C449        C454   1.398       .  A
C449        H459   1.085       .  S
C450        C455   1.485       .  S
C450        C451   1.404   1_565  A
C451        C452   1.402       .  A
C451        S456   1.805       .  S
C452        C453   1.426   1_545  A
C452        H457   1.077       .  S
C453        C454   1.444       .  A
C454        S458   1.815       .  S
C455        C460   1.401   1_565  A
C455        C464   1.399       .  A
S456        H472   1.405       .  S
S458        H469   1.388       .  S
C460        C461   1.393       .  A
C460        S465   1.812       .  S
C461        C462   1.422       .  A
C461        H466   1.073       .  S
C462        C463   1.437   1_545  A
C463        C464   1.412       .  A
C463        S467   1.810       .  S
C464        H468   1.082       .  S
S465        H470   1.407       .  S
S467        H471   1.406       .  S
C473        C474   1.394   1_545  A
C473        C478   1.403       .  A
C473        H483   1.083       .  S
C474        C479   1.481   1_455  S
C474        C475   1.404       .  A
C475        C476   1.398       .  A
C475        S480   1.805       .  S
C476        C477   1.424       .  A
C476        H481   1.083       .  S
C477        C478   1.443   1_565  A
C478        S482   1.815       .  S
C479        C484   1.401       .  A
C479        C488   1.394   1_565  A
S480        H496   1.405   1_455  S
S482        H493   1.406       .  S
C484        C485   1.404       .  A
C484        S489   1.807       .  S
C485        C486   1.425       .  A
C485        H490   1.075       .  S
C486        C487   1.439   1_565  A
C487        C488   1.399       .  A
C487        S491   1.812       .  S
C488        H492   1.083       .  S
S489        H494   1.407       .  S
S491        H495   1.407       .  S
C497        C498   1.405       .  A
C497        C502   1.404       .  A
C497        H507   1.084       .  S
C498        C503   1.490       .  S
C498        C499   1.410       .  A
C499        C500   1.397       .  A
C499        S504   1.803       .  S
C500        C501   1.411       .  A
C500        H505   1.083       .  S
C501        C502   1.420       .  A
C502        S506   1.801       .  S
C503        C508   1.401       .  A
C503        C512   1.398       .  A
S504        H520   1.406       .  S
S506        H517   1.408       .  S
C508        C509   1.399       .  A
C508        S513   1.809       .  S
C509        C510   1.426       .  A
C509        H514   1.071       .  S
C510        C511   1.443       .  A
C511        C512   1.405       .  A
C511        S515   1.809       .  S
C512        H516   1.084       .  S
S513        H518   1.407       .  S
S515        H519   1.395   1_565  S
C521        C522   1.406       .  A
C521        C526   1.403       .  A
C521        H531   1.084       .  S
C522        C527   1.488       .  S
C522        C523   1.414       .  A
C523        C524   1.397       .  A
C523        S528   1.803       .  S
C524        C525   1.401       .  A
C524        H529   1.084       .  S
C525        C526   1.413       .  A
C526        S530   1.804       .  S
C527        C532   1.403       .  A
C527        C536   1.398       .  A
S528        H544   1.403       .  S
S530        H541   1.406       .  S
C532        C533   1.402       .  A
C532        S537   1.807       .  S
C533        C534   1.424       .  A
C533        H538   1.080       .  S
C534        C535   1.441       .  A
C535        C536   1.402       .  A
C535        S539   1.809       .  S
C536        H540   1.085       .  S
S537        H542   1.407       .  S
S539        H543   1.398       .  S
C545        C546   1.397       .  A
C545        C550   1.403       .  A
C545        H555   1.083       .  S
C546        C551   1.478       .  S
C546        C547   1.405       .  A
C547        C548   1.396       .  A
C547        S552   1.805       .  S
C548        C549   1.419       .  A
C548        H553   1.078       .  S
C549        C550   1.435       .  A
C550        S554   1.810       .  S
C551        C556   1.411       .  A
C551        C560   1.398       .  A
S552        H568   1.405       .  S
S554        H565   1.407       .  S
C556        C557   1.406       .  A
C556        S561   1.806       .  S
C557        C558   1.404       .  A
C557        H562   1.083       .  S
C558        C559   1.417       .  A
C559        C560   1.394       .  A
C559        S563   1.806       .  S
C560        H564   1.084       .  S
S561        H566   1.407       .  S
S563        H567   1.407       .  S
C569        C570   1.393       .  A
C569        C574   1.405       .  A
C569        H579   1.083       .  S
C570        C575   1.480       .  S
C570        C571   1.404       .  A
C571        C572   1.398       .  A
C571        S576   1.804       .  S
C572        C573   1.418       .  A
C572        H577   1.079       .  S
C573        C574   1.444       .  A
C574        S578   1.816       .  S
C575        C580   1.410       .  A
C575        C584   1.399       .  A
S576        H592   1.405       .  S
S578        H589   1.406       .  S
C580        C581   1.406       .  A
C580        S585   1.806       .  S
C581        C582   1.406       .  A
C581        H586   1.083       .  S
C582        C583   1.418       .  A
C583        C584   1.398       .  A
C583        S587   1.805       .  S
C584        H588   1.084       .  S
S585        H590   1.407       .  S
S587        H591   1.407       .  S
C593        C594   1.395   1_556  A
C593        C598   1.402       .  A
C593        H603   1.083       .  S
C594        C599   1.482   1_565  S
C594        C595   1.404       .  A
C595        C596   1.398       .  A
C595        S600   1.803       .  S
C596        C597   1.421       .  A
C596        H601   1.077       .  S
C597        C598   1.436   1_554  A
C598        S602   1.810       .  S
C599        C604   1.399       .  A
C599        C608   1.398       .  A
S600        H616   1.405   1_565  S
S602        H613   1.407       .  S
C604        C605   1.395       .  A
C604        S609   1.806       .  S
C605        C606   1.423       .  A
C605        H610   1.074   1_554  S
C606        C607   1.437       .  A
C607        C608   1.409       .  A
C607        S611   1.810       .  S
C608        H612   1.082       .  S
S609        H614   1.407       .  S
S611        H615   1.406       .  S
C617        C618   1.396       .  A
C617        C622   1.408       .  A
C617        H627   1.084       .  S
C618        C623   1.483       .  S
C618        C619   1.402   1_554  A
C619        C620   1.391       .  A
C619        S624   1.805       .  S
C620        C621   1.420       .  A
C620        H625   1.071       .  S
C621        C622   1.445   1_556  A
C622        S626   1.808       .  S
C623        C628   1.401       .  A
C623        C632   1.397   1_554  A
S624        H640   1.405       .  S
S626        H637   1.396   1_554  S
C628        C629   1.399       .  A
C628        S633   1.808       .  S
C629        C630   1.422       .  A
C629        H634   1.079       .  S
C630        C631   1.438   1_554  A
C631        C632   1.406       .  A
C631        S635   1.802       .  S
C632        H636   1.084       .  S
S633        H638   1.406       .  S
S635        H639   1.399       .  S
C641        C642   1.402       .  A
C641        C646   1.401       .  A
C641        H651   1.083       .  S
C642        C647   1.487       .  S
C642        C643   1.415       .  A
C643        C644   1.404       .  A
C643        S648   1.804       .  S
C644        C645   1.403       .  A
C644        H649   1.084       .  S
C645        C646   1.414       .  A
C646        S650   1.810       .  S
C647        C652   1.402       .  A
C647        C656   1.397       .  A
S648        H664   1.406       .  S
S650        H661   1.407       .  S
C652        C653   1.399       .  A
C652        S657   1.809       .  S
C653        C654   1.423       .  A
C653        H658   1.073       .  S
C654        C655   1.437       .  A
C655        C656   1.407       .  A
C655        S659   1.809       .  S
C656        H660   1.083       .  S
S657        H662   1.407       .  S
S659        H663   1.407       .  S
C665        C666   1.397   1_554  A
C665        C670   1.405       .  A
C665        H675   1.083       .  S
C666        C671   1.491       .  S
C666        C667   1.407       .  A
C667        C668   1.402       .  A
C667        S672   1.806       .  S
C668        C669   1.422       .  A
C668        H673   1.076       .  S
C669        C670   1.437   1_556  A
C670        S674   1.810       .  S
C671        C676   1.404       .  A
C671        C680   1.399   1_556  A
S672        H688   1.405       .  S
S674        H685   1.406       .  S
C676        C677   1.402       .  A
C676        S681   1.808       .  S
C677        C678   1.423       .  A
C677        H682   1.082       .  S
C678        C679   1.439   1_556  A
C679        C680   1.408       .  A
C679        S683   1.813       .  S
C680        H684   1.083       .  S
S681        H686   1.407       .  S
S683        H687   1.407       .  S
C689        C690   1.396   1_556  A
C689        C694   1.403       .  A
C689        H699   1.083       .  S
C690        C695   1.482   1_545  S
C690        C691   1.404       .  A
C691        C692   1.400       .  A
C691        S696   1.804       .  S
C692        C693   1.424   1_554  A
C692        H697   1.078       .  S
C693        C694   1.437       .  A
C694        S698   1.811       .  S
C695        C700   1.400       .  A
C695        C704   1.397       .  A
S696        H712   1.406   1_545  S
S698        H709   1.406       .  S
C700        C701   1.397       .  A
C700        S705   1.811       .  S
C701        C702   1.423       .  A
C701        H706   1.076       .  S
C702        C703   1.438       .  A
C703        C704   1.408       .  A
C703        S707   1.810       .  S
C704        H708   1.082   1_554  S
S705        H710   1.407       .  S
S707        H711   1.406       .  S
C713        C714   1.396       .  A
C713        C718   1.405       .  A
C713        H723   1.085       .  S
C714        C719   1.484       .  S
C714        C715   1.404       .  A
C715        C716   1.397       .  A
C715        S720   1.805       .  S
C716        C717   1.420       .  A
C716        H721   1.074       .  S
C717        C718   1.446       .  A
C718        S722   1.814       .  S
C719        C724   1.412       .  A
C719        C728   1.399       .  A
S720        H736   1.405       .  S
S722        H733   1.393       .  S
C724        C725   1.407       .  A
C724        S729   1.804       .  S
C725        C726   1.404       .  A
C725        H730   1.083       .  S
C726        C727   1.418       .  A
C727        C728   1.397       .  A
C727        S731   1.805       .  S
C728        H732   1.084       .  S
S729        H734   1.406       .  S
S731        H735   1.407       .  S
C737        C738   1.406       .  A
C737        C742   1.403       .  A
C737        H747   1.084       .  S
C738        C743   1.487       .  S
C738        C739   1.414       .  A
C739        C740   1.398       .  A
C739        S744   1.805       .  S
C740        C741   1.403       .  A
C740        H745   1.084       .  S
C741        C742   1.412       .  A
C742        S746   1.804       .  S
C743        C748   1.401       .  A
C743        C752   1.397       .  A
S744        H760   1.406       .  S
S746        H757   1.406       .  S
C748        C749   1.401       .  A
C748        S753   1.807       .  S
C749        C750   1.425       .  A
C749        H754   1.082       .  S
C750        C751   1.442       .  A
C751        C752   1.404       .  A
C751        S755   1.812       .  S
C752        H756   1.083       .  S
S753        H758   1.406       .  S
S755        H759   1.407       .  S
C761        C762   1.403       .  A
C761        C766   1.403       .  A
C761        H771   1.084       .  S
C762        C767   1.482       .  S
C762        C763   1.408       .  A
C763        C764   1.399       .  A
C763        S768   1.806       .  S
C764        C765   1.413       .  A
C764        H769   1.083       .  S
C765        C766   1.419       .  A
C766        S770   1.799       .  S
C767        C772   1.398       .  A
C767        C776   1.394       .  A
S768        H784   1.405       .  S
S770        H781   1.407       .  S
C772        C773   1.400       .  A
C772        S777   1.808       .  S
C773        C774   1.426       .  A
C773        H778   1.072       .  S
C774        C775   1.443       .  A
C775        C776   1.403       .  A
C775        S779   1.810       .  S
C776        H780   1.084       .  S
S777        H782   1.407       .  S
S779        H783   1.392   1_545  S
C785        C786   1.401       .  A
C785        C790   1.398       .  A
C785        H795   1.084       .  S
C786        C791   1.477       .  S
C786        C787   1.411       .  A
C787        C788   1.398       .  A
C787        S792   1.805       .  S
C788        C789   1.406       .  A
C788        H793   1.084       .  S
C789        C790   1.416       .  A
C790        S794   1.803       .  S
C791        C796   1.400       .  A
C791        C800   1.394       .  A
S792        H808   1.404       .  S
S794        H805   1.407       .  S
C796        C797   1.397       .  A
C796        S801   1.808       .  S
C797        C798   1.418       .  A
C797        H802   1.073       .  S
C798        C799   1.441       .  A
C799        C800   1.404       .  A
C799        S803   1.812       .  S
C800        H804   1.083       .  S
S801        H806   1.407       .  S
S803        H807   1.407       .  S
C809        C810   1.403       .  A
C809        C814   1.402       .  A
C809        H819   1.084       .  S
C810        C815   1.483       .  S
C810        C811   1.412       .  A
C811        C812   1.399       .  A
C811        S816   1.806       .  S
C812        C813   1.407       .  A
C812        H817   1.084       .  S
C813        C814   1.415       .  A
C814        S818   1.798       .  S
C815        C820   1.400       .  A
C815        C824   1.395       .  A
S816        H832   1.405       .  S
S818        H829   1.407       .  S
C820        C821   1.399       .  A
C820        S825   1.809       .  S
C821        C822   1.424       .  A
C821        H826   1.072       .  S
C822        C823   1.443       .  A
C823        C824   1.403       .  A
C823        S827   1.812       .  S
C824        H828   1.084       .  S
S825        H830   1.407       .  S
S827        H831   1.393       .  S
C833        C834   1.402       .  A
C833        C838   1.399       .  A
C833        H843   1.084       .  S
C834        C839   1.479       .  S
C834        C835   1.411       .  A
C835        C836   1.398       .  A
C835        S840   1.806       .  S
C836        C837   1.408       .  A
C836        H841   1.084       .  S
C837        C838   1.416       .  A
C838        S842   1.803       .  S
C839        C844   1.403       .  A
C839        C848   1.392       .  A
S840        H856   1.405       .  S
S842        H853   1.407       .  S
C844        C845   1.402       .  A
C844        S849   1.807       .  S
C845        C846   1.421       .  A
C845        H850   1.075       .  S
C846        C847   1.438       .  A
C847        C848   1.399       .  A
C847        S851   1.812       .  S
C848        H852   1.083       .  S
S849        H854   1.407       .  S
S851        H855   1.407       .  S
C857        C858   1.402       .  A
C857        C862   1.398       .  A
C857        H867   1.084       .  S
C858        C863   1.485       .  S
C858        C859   1.416       .  A
C859        C860   1.402       .  A
C859        S864   1.804       .  S
C860        C861   1.402       .  A
C860        H865   1.084       .  S
C861        C862   1.413       .  A
C862        S866   1.805       .  S
C863        C868   1.402       .  A
C863        C872   1.394       .  A
S864        H880   1.407       .  S
S866        H877   1.407       .  S
C868        C869   1.402       .  A
C868        S873   1.808       .  S
C869        C870   1.425       .  A
C869        H874   1.072       .  S
C870        C871   1.441       .  A
C871        C872   1.398       .  A
C871        S875   1.802       .  S
C872        H876   1.085       .  S
S873        H878   1.407       .  S
S875        H879   1.393       .  S
C881        C882   1.401       .  A
C881        C886   1.399       .  A
C881        H891   1.084       .  S
C882        C887   1.483       .  S
C882        C883   1.415       .  A
C883        C884   1.402       .  A
C883        S888   1.805       .  S
C884        C885   1.402       .  A
C884        H889   1.084       .  S
C885        C886   1.415       .  A
C886        S890   1.805       .  S
C887        C892   1.399       .  A
C887        C896   1.397       .  A
S888        H904   1.406       .  S
S890        H901   1.407       .  S
C892        C893   1.398       .  A
C892        S897   1.808       .  S
C893        C894   1.419       .  A
C893        H898   1.074       .  S
C894        C895   1.441       .  A
C895        C896   1.409       .  A
C895        S899   1.814       .  S
C896        H900   1.082       .  S
S897        H902   1.407       .  S
S899        H903   1.406       .  S
C905        C906   1.400       .  A
C905        C910   1.410       .  A
C905        H915   1.083       .  S
C906        C911   1.492       .  S
C906        C907   1.404       .  A
C907        C908   1.396       .  A
C907        S912   1.804       .  S
C908        C909   1.422       .  A
C908        H913   1.083       .  S
C909        C910   1.440       .  A
C910        S914   1.811       .  S
C911        C916   1.413       .  A
C911        C920   1.406       .  A
S912        H928   1.406       .  S
S914        H925   1.407       .  S
C916        C917   1.403       .  A
C916        S921   1.809       .  S
C917        C918   1.405       .  A
C917        H922   1.083       .  S
C918        C919   1.413       .  A
C919        C920   1.403       .  A
C919        S923   1.803       .  S
C920        H924   1.084       .  S
S921        H926   1.407       .  S
S923        H927   1.406       .  S
C929        C930   1.405       .  A
C929        C934   1.408       .  A
C929        H939   1.084       .  S
C930        C935   1.484       .  S
C930        C931   1.405       .  A
C931        C932   1.393       .  A
C931        S936   1.802       .  S
C932        C933   1.412       .  A
C932        H937   1.083       .  S
C933        C934   1.421       .  A
C934        S938   1.799       .  S
C935        C940   1.397       .  A
C935        C944   1.397       .  A
S936        H952   1.405       .  S
S938        H949   1.407       .  S
C940        C941   1.397       .  A
C940        S945   1.808       .  S
C941        C942   1.427       .  A
C941        H946   1.072       .  S
C942        C943   1.441       .  A
C943        C944   1.407       .  A
C943        S947   1.807       .  S
C944        H948   1.084       .  S
S945        H950   1.408       .  S
S947        H951   1.393       .  S
C953        C954   1.399       .  A
C953        C958   1.400       .  A
C953        H963   1.083       .  S
C954        C959   1.478       .  S
C954        C955   1.413       .  A
C955        C956   1.403       .  A
C955        S960   1.805       .  S
C956        C957   1.404       .  A
C956        H961   1.084       .  S
C957        C958   1.416       .  A
C958        S962   1.810       .  S
C959        C964   1.401       .  A
C959        C968   1.391       .  A
S960        H976   1.404       .  S
S962        H973   1.407       .  S
C964        C965   1.402       .  A
C964        S969   1.806       .  S
C965        C966   1.418       .  A
C965        H970   1.077       .  S
C966        C967   1.442       .  A
C967        C968   1.403       .  A
C967        S971   1.811       .  S
C968        H972   1.083       .  S
S969        H974   1.407       .  S
S971        H975   1.407       .  S
C977        C978   1.403       .  A
C977        C982   1.400       .  A
C977        H987   1.084       .  S
C978        C983   1.487       .  S
C978        C979   1.414       .  A
C979        C980   1.404       .  A
C979        S984   1.803       .  S
C980        C981   1.404       .  A
C980        H985   1.084       .  S
C981        C982   1.415       .  A
C982        S986   1.805       .  S
C983        C988   1.405       .  A
C983        C992   1.397       .  A
S984       H1000   1.406       .  S
S986        H997   1.407       .  S
C988        C989   1.403       .  A
C988        S993   1.808       .  S
C989        C990   1.422       .  A
C989        H994   1.075       .  S
C990        C991   1.435       .  A
C991        C992   1.405       .  A
C991        S995   1.811       .  S
C992        H996   1.083       .  S
S993        H998   1.407       .  S
S995        H999   1.406       .  S
C1001      C1002   1.402       .  A
C1001      C1006   1.400       .  A
C1001      H1011   1.084       .  S
C1002      C1007   1.484       .  S
C1002      C1003   1.413       .  A
C1003      C1004   1.400       .  A
C1003      S1008   1.804       .  S
C1004      C1005   1.405       .  A
C1004      H1009   1.084       .  S
C1005      C1006   1.418       .  A
C1006      S1010   1.804       .  S
C1007      C1012   1.403       .  A
C1007      C1016   1.392       .  A
S1008      H1024   1.406       .  S
S1010      H1021   1.407       .  S
C1012      C1013   1.405       .  A
C1012      S1017   1.807       .  S
C1013      C1014   1.423       .  A
C1013      H1018   1.076       .  S
C1014      C1015   1.436       .  A
C1015      C1016   1.401       .  A
C1015      S1019   1.797       .  S
C1016      H1020   1.083       .  S
S1017      H1022   1.407       .  S
S1019      H1023   1.408       .  S
C1025      C1026   1.397       .  A
C1025      C1030   1.404       .  A
C1025      H1035   1.083       .  S
C1026      C1031   1.481       .  S
C1026      C1027   1.404       .  A
C1027      C1028   1.400       .  A
C1027      S1032   1.804       .  S
C1028      C1029   1.417       .  A
C1028      H1033   1.076       .  S
C1029      C1030   1.435       .  A
C1030      S1034   1.810       .  S
C1031      C1036   1.407       .  A
C1031      C1040   1.404       .  A
S1032      H1048   1.405       .  S
S1034      H1045   1.407       .  S
C1036      C1037   1.400       .  A
C1036      S1041   1.807       .  S
C1037      C1038   1.404       .  A
C1037      H1042   1.083       .  S
C1038      C1039   1.413       .  A
C1039      C1040   1.403       .  A
C1039      S1043   1.803       .  S
C1040      H1044   1.084       .  S
S1041      H1046   1.407       .  S
S1043      H1047   1.406       .  S
C1049      C1050   1.400       .  A
C1049      C1054   1.398       .  A
C1049      H1059   1.084       .  S
C1050      C1055   1.485       .  S
C1050      C1051   1.414       .  A
C1051      C1052   1.404       .  A
C1051      S1056   1.804       .  S
C1052      C1053   1.405       .  A
C1052      H1057   1.084       .  S
C1053      C1054   1.418       .  A
C1054      S1058   1.805       .  S
C1055      C1060   1.402       .  A
C1055      C1064   1.396       .  A
S1056      H1072   1.406       .  S
S1058      H1069   1.407       .  S
C1060      C1061   1.401       .  A
C1060      S1065   1.809       .  S
C1061      C1062   1.423       .  A
C1061      H1066   1.074       .  S
C1062      C1063   1.437       .  A
C1063      C1064   1.406       .  A
C1063      S1067   1.811       .  S
C1064      H1068   1.083       .  S
S1065      H1070   1.407       .  S
S1067      H1071   1.407       .  S
C1073      C1074   1.393       .  A
C1073      C1078   1.401       .  A
C1073      H1083   1.084       .  S
C1074      C1079   1.487   1_545  S
C1074      C1075   1.407       .  A
C1075      C1076   1.405       .  A
C1075      S1080   1.803       .  S
C1076      C1077   1.421       .  A
C1076      H1081   1.081       .  S
C1077      C1078   1.442       .  A
C1078      S1082   1.813       .  S
C1079      C1084   1.403       .  A
C1079      C1088   1.395       .  A
S1080      H1096   1.405   1_545  S
S1082      H1093   1.407       .  S
C1084      C1085   1.406       .  A
C1084      S1089   1.807       .  S
C1085      C1086   1.422       .  A
C1085      H1090   1.075       .  S
C1086      C1087   1.439       .  A
C1087      C1088   1.404       .  A
C1087      S1091   1.813       .  S
C1088      H1092   1.083       .  S
S1089      H1094   1.406       .  S
S1091      H1095   1.406       .  S
C1097      C1098   1.395       .  A
C1097      C1102   1.401       .  A
C1097      H1107   1.083       .  S
C1098      C1103   1.477       .  S
C1098      C1099   1.406       .  A
C1099      C1100   1.397       .  A
C1099      S1104   1.805       .  S
C1100      C1101   1.417       .  A
C1100      H1105   1.084       .  S
C1101      C1102   1.437       .  A
C1102      S1106   1.814       .  S
C1103      C1108   1.406       .  A
C1103      C1112   1.404       .  A
S1104      H1120   1.405       .  S
S1106      H1117   1.407       .  S
C1108      C1109   1.395       .  A
C1108      S1113   1.809       .  S
C1109      C1110   1.405       .  A
C1109      H1114   1.083       .  S
C1110      C1111   1.415       .  A
C1111      C1112   1.404       .  A
C1111      S1115   1.802       .  S
C1112      H1116   1.084       .  S
S1113      H1118   1.407       .  S
S1115      H1119   1.407       .  S
C1121      C1122   1.397       .  A
C1121      C1126   1.408       .  A
C1121      H1131   1.083       .  S
C1122      C1127   1.477       .  S
C1122      C1123   1.399       .  A
C1123      C1124   1.391       .  A
C1123      S1128   1.806       .  S
C1124      C1125   1.423       .  A
C1124      H1129   1.075       .  S
C1125      C1126   1.438       .  A
C1126      S1130   1.810       .  S
C1127      C1132   1.409       .  A
C1127      C1136   1.400       .  A
S1128      H1144   1.406       .  S
S1130      H1141   1.407       .  S
C1132      C1133   1.405       .  A
C1132      S1137   1.805       .  S
C1133      C1134   1.404       .  A
C1133      H1138   1.083       .  S
C1134      C1135   1.413       .  A
C1135      C1136   1.394       .  A
C1135      S1139   1.805       .  S
C1136      H1140   1.084       .  S
S1137      H1142   1.407       .  S
S1139      H1143   1.407       .  S
C1145      C1146   1.395       .  A
C1145      C1150   1.401       .  A
C1145      H1155   1.083       .  S
C1146      C1151   1.481       .  S
C1146      C1147   1.405       .  A
C1147      C1148   1.397       .  A
C1147      S1152   1.809       .  S
C1148      C1149   1.420       .  A
C1148      H1153   1.075       .  S
C1149      C1150   1.436       .  A
C1150      S1154   1.811       .  S
C1151      C1156   1.399       .  A
C1151      C1160   1.395       .  A
S1152      H1168   1.407       .  S
S1154      H1165   1.406       .  S
C1156      C1157   1.397       .  A
C1156      S1161   1.809       .  S
C1157      C1158   1.426       .  A
C1157      H1162   1.080       .  S
C1158      C1159   1.449       .  A
C1159      C1160   1.402       .  A
C1159      S1163   1.815       .  S
C1160      H1164   1.085       .  S
S1161      H1166   1.407       .  S
S1163      H1167   1.390       .  S
C1169      C1170   1.398       .  A
C1169      C1174   1.410       .  A
C1169      H1179   1.083       .  S
C1170      C1175   1.486       .  S
C1170      C1171   1.402       .  A
C1171      C1172   1.394       .  A
C1171      S1176   1.807       .  S
C1172      C1173   1.424       .  A
C1172      H1177   1.074       .  S
C1173      C1174   1.441       .  A
C1174      S1178   1.815       .  S
C1175      C1180   1.411       .  A
C1175      C1184   1.400       .  A
S1176      H1192   1.406       .  S
S1178      H1189   1.406       .  S
C1180      C1181   1.408       .  A
C1180      S1185   1.806       .  S
C1181      C1182   1.406       .  A
C1181      H1186   1.083       .  S
C1182      C1183   1.416       .  A
C1183      C1184   1.398       .  A
C1183      S1187   1.800       .  S
C1184      H1188   1.084       .  S
S1185      H1190   1.407       .  S
S1187      H1191   1.407       .  S
C1193      C1194   1.393       .  A
C1193      C1198   1.400       .  A
C1193      H1203   1.085       .  S
C1194      C1199   1.479       .  S
C1194      C1195   1.404       .  A
C1195      C1196   1.398       .  A
C1195      S1200   1.806       .  S
C1196      C1197   1.423       .  A
C1196      H1201   1.078       .  S
C1197      C1198   1.444       .  A
C1198      S1202   1.812       .  S
C1199      C1204   1.407       .  A
C1199      C1208   1.402       .  A
S1200      H1216   1.405       .  S
S1202      H1213   1.392       .  S
C1204      C1205   1.400       .  A
C1204      S1209   1.808       .  S
C1205      C1206   1.407       .  A
C1205      H1210   1.083       .  S
C1206      C1207   1.414       .  A
C1207      C1208   1.405       .  A
C1207      S1211   1.807       .  S
C1208      H1212   1.083       .  S
S1209      H1214   1.407       .  S
S1211      H1215   1.407       .  S
C1217      C1218   1.395       .  A
C1217      C1222   1.402       .  A
C1217      H1227   1.083       .  S
C1218      C1223   1.475       .  S
C1218      C1219   1.401       .  A
C1219      C1220   1.394       .  A
C1219      S1224   1.806       .  S
C1220      C1221   1.423       .  A
C1220      H1225   1.077       .  S
C1221      C1222   1.437       .  A
C1222      S1226   1.816       .  S
C1223      C1228   1.398       .  A
C1223      C1232   1.394       .  A
S1224      H1240   1.406       .  S
S1226      H1237   1.406       .  S
C1228      C1229   1.397       .  A
C1228      S1233   1.809       .  S
C1229      C1230   1.423       .  A
C1229      H1234   1.074       .  S
C1230      C1231   1.437       .  A
C1231      C1232   1.403       .  A
C1231      S1235   1.812       .  S
C1232      H1236   1.083       .  S
S1233      H1238   1.407       .  S
S1235      H1239   1.406       .  S
C1241      C1242   1.408       .  A
C1241      C1246   1.411       .  A
C1241      H1251   1.078       .  S
C1242      C1247   1.513   1_545  S
C1242      C1243   1.417       .  A
C1243      C1244   1.398       .  A
C1243      S1248   1.807       .  S
C1244      C1245   1.418       .  A
C1244      H1249   1.079       .  S
C1245      C1246   1.427       .  A
C1246      S1250   1.809       .  S
C1247      C1252   1.415       .  A
C1247      C1256   1.400       .  A
S1248      H1264   1.407       .  S
S1250      H1261   1.406       .  S
C1252      C1253   1.410       .  A
C1252      S1257   1.808       .  S
C1253      C1254   1.420       .  A
C1253      H1258   1.071       .  S
C1254      C1255   1.442       .  A
C1255      C1256   1.398       .  A
C1255      S1259   1.811       .  S
C1256      H1260   1.083       .  S
S1257      H1262   1.407       .  S
S1259      H1263   1.395       .  S
C1265      C1266   1.406       .  A
C1265      C1270   1.406       .  A
C1265      H1275   1.084       .  S
C1266      C1271   1.494       .  S
C1266      C1267   1.414       .  A
C1267      C1268   1.401       .  A
C1267      S1272   1.805       .  S
C1268      C1269   1.407       .  A
C1268      H1273   1.084       .  S
C1269      C1270   1.417       .  A
C1270      S1274   1.802       .  S
C1271      C1276   1.402       .  A
C1271      C1280   1.396       .  A
S1272      H1288   1.406       .  S
S1274      H1285   1.407       .  S
C1276      C1277   1.404       .  A
C1276      S1281   1.807       .  S
C1277      C1278   1.425       .  A
C1277      H1282   1.081       .  S
C1278      C1279   1.449       .  A
C1279      C1280   1.405       .  A
C1279      S1283   1.812       .  S
C1280      H1284   1.085       .  S
S1281      H1286   1.407       .  S
S1283      H1287   1.393       .  S
C1289      C1290   1.393       .  A
C1289      C1294   1.403       .  A
C1289      H1299   1.083       .  S
C1290      C1295   1.482       .  S
C1290      C1291   1.404       .  A
C1291      C1292   1.399       .  A
C1291      S1296   1.805       .  S
C1292      C1293   1.424       .  A
C1292      H1297   1.078       .  S
C1293      C1294   1.436       .  A
C1294      S1298   1.802       .  S
C1295      C1300   1.412       .  A
C1295      C1304   1.401       .  A
S1296      H1312   1.406       .  S
S1298      H1309   1.406       .  S
C1300      C1301   1.405       .  A
C1300      S1305   1.807       .  S
C1301      C1302   1.402       .  A
C1301      H1306   1.083       .  S
C1302      C1303   1.413       .  A
C1303      C1304   1.398       .  A
C1303      S1307   1.805       .  S
C1304      H1308   1.084       .  S
S1305      H1310   1.407       .  S
S1307      H1311   1.407       .  S
C1313      C1314   1.396       .  A
C1313      C1318   1.405       .  A
C1313      H1323   1.084       .  S
C1314      C1319   1.480       .  S
C1314      C1315   1.402       .  A
C1315      C1316   1.393       .  A
C1315      S1320   1.808       .  S
C1316      C1317   1.423       .  A
C1316      H1321   1.075       .  S
C1317      C1318   1.443       .  A
C1318      S1322   1.812       .  S
C1319      C1324   1.409       .  A
C1319      C1328   1.404       .  A
S1320      H1336   1.405       .  S
S1322      H1333   1.391       .  S
C1324      C1325   1.400       .  A
C1324      S1329   1.807       .  S
C1325      C1326   1.404       .  A
C1325      H1330   1.083       .  S
C1326      C1327   1.412       .  A
C1327      C1328   1.402       .  A
C1327      S1331   1.803       .  S
C1328      H1332   1.084       .  S
S1329      H1334   1.407       .  S
S1331      H1335   1.406       .  S
C1337      C1338   1.398       .  A
C1337      C1342   1.405       .  A
C1337      H1347   1.083       .  S
C1338      C1343   1.494   1_556  S
C1338      C1339   1.409       .  A
C1339      C1340   1.401       .  A
C1339      S1344   1.805       .  S
C1340      C1341   1.421       .  A
C1340      H1345   1.078       .  S
C1341      C1342   1.438       .  A
C1342      S1346   1.811       .  S
C1343      C1348   1.405       .  A
C1343      C1352   1.396       .  A
S1344      H1360   1.406   1_556  S
S1346      H1357   1.407       .  S
C1348      C1349   1.406       .  A
C1348      S1353   1.807       .  S
C1349      C1350   1.423       .  A
C1349      H1354   1.074       .  S
C1350      C1351   1.439       .  A
C1351      C1352   1.403       .  A
C1351      S1355   1.812       .  S
C1352      H1356   1.082       .  S
S1353      H1358   1.407       .  S
S1355      H1359   1.406       .  S
C1361      C1362   1.404       .  A
C1361      C1366   1.398       .  A
C1361      H1371   1.084       .  S
C1362      C1367   1.489       .  S
C1362      C1363   1.415       .  A
C1363      C1364   1.403       .  A
C1363      S1368   1.804       .  S
C1364      C1365   1.404       .  A
C1364      H1369   1.084       .  S
C1365      C1366   1.413       .  A
C1366      S1370   1.805       .  S
C1367      C1372   1.401       .  A
C1367      C1376   1.396       .  A
S1368      H1384   1.406       .  S
S1370      H1381   1.406       .  S
C1372      C1373   1.397       .  A
C1372      S1377   1.810       .  S
C1373      C1374   1.424       .  A
C1373      H1378   1.072       .  S
C1374      C1375   1.447       .  A
C1375      C1376   1.410       .  A
C1375      S1379   1.818       .  S
C1376      H1380   1.082       .  S
S1377      H1382   1.407       .  S
S1379      H1383   1.406       .  S
C1385      C1386   1.401       .  A
C1385      C1390   1.396       .  A
C1385      H1395   1.084       .  S
C1386      C1391   1.481       .  S
C1386      C1387   1.414       .  A
C1387      C1388   1.401       .  A
C1387      S1392   1.805       .  S
C1388      C1389   1.404       .  A
C1388      H1393   1.084       .  S
C1389      C1390   1.415       .  A
C1390      S1394   1.805       .  S
C1391      C1396   1.402       .  A
C1391      C1400   1.393       .  A
S1392      H1408   1.406       .  S
S1394      H1405   1.407       .  S
C1396      C1397   1.400       .  A
C1396      S1401   1.806       .  S
C1397      C1398   1.424       .  A
C1397      H1402   1.082       .  S
C1398      C1399   1.443       .  A
C1399      C1400   1.403       .  A
C1399      S1403   1.807       .  S
C1400      H1404   1.084       .  S
S1401      H1406   1.407       .  S
S1403      H1407   1.408       .  S
C1409      C1410   1.404       .  A
C1409      C1414   1.402       .  A
C1409      H1419   1.083       .  S
C1410      C1415   1.506       .  S
C1410      C1411   1.409       .  A
C1411      C1412   1.400       .  A
C1411      S1416   1.807       .  S
C1412      C1413   1.423       .  A
C1412      H1417   1.078       .  S
C1413      C1414   1.438       .  A
C1414      S1418   1.810       .  S
C1415      C1420   1.410       .  A
C1415      C1424   1.401       .  A
S1416      H1432   1.406       .  S
S1418      H1429   1.392       .  S
C1420      C1421   1.403       .  A
C1420      S1425   1.811       .  S
C1421      C1422   1.419       .  A
C1421      H1426   1.065       .  S
C1422      C1423   1.445       .  A
C1423      C1424   1.406       .  A
C1423      S1427   1.811       .  S
C1424      H1428   1.081       .  S
S1425      H1430   1.407       .  S
S1427      H1431   1.407       .  S
C1433      C1434   1.404       .  A
C1433      C1438   1.403       .  A
C1433      H1443   1.084       .  S
C1434      C1439   1.485       .  S
C1434      C1435   1.413       .  A
C1435      C1436   1.401       .  A
C1435      S1440   1.805       .  S
C1436      C1437   1.405       .  A
C1436      H1441   1.084       .  S
C1437      C1438   1.413       .  A
C1438      S1442   1.803       .  S
C1439      C1444   1.400       .  A
C1439      C1448   1.396       .  A
S1440      H1456   1.405       .  S
S1442      H1453   1.407       .  S
C1444      C1445   1.401       .  A
C1444      S1449   1.809       .  S
C1445      C1446   1.428       .  A
C1445      H1450   1.076       .  S
C1446      C1447   1.433       .  A
C1447      C1448   1.408       .  A
C1447      S1451   1.798       .  S
C1448      H1452   1.083       .  S
S1449      H1454   1.407       .  S
S1451      H1455   1.407       .  S
C1457      C1458   1.393       .  A
C1457      C1462   1.402       .  A
C1457      H1467   1.083       .  S
C1458      C1463   1.482       .  S
C1458      C1459   1.405       .  A
C1459      C1460   1.399       .  A
C1459      S1464   1.805       .  S
C1460      C1461   1.421       .  A
C1460      H1465   1.076       .  S
C1461      C1462   1.439       .  A
C1462      S1466   1.811       .  S
C1463      C1468   1.406       .  A
C1463      C1472   1.401       .  A
S1464      H1480   1.405       .  S
S1466      H1477   1.407       .  S
C1468      C1469   1.403       .  A
C1468      S1473   1.807       .  S
C1469      C1470   1.410       .  A
C1469      H1474   1.082       .  S
C1470      C1471   1.421       .  A
C1471      C1472   1.406       .  A
C1471      S1475   1.809       .  S
C1472      H1476   1.083       .  S
S1473      H1478   1.407       .  S
S1475      H1479   1.407       .  S
C1481      C1482   1.394       .  A
C1481      C1486   1.402       .  A
C1481      H1491   1.083       .  S
C1482      C1487   1.484       .  S
C1482      C1483   1.408       .  A
C1483      C1484   1.405       .  A
C1483      S1488   1.806       .  S
C1484      C1485   1.420       .  A
C1484      H1489   1.077       .  S
C1485      C1486   1.439       .  A
C1486      S1490   1.814       .  S
C1487      C1492   1.400       .  A
C1487      C1496   1.396       .  A
S1488      H1504   1.404       .  S
S1490      H1501   1.406       .  S
C1492      C1493   1.391       .  A
C1492      S1497   1.802       .  S
C1493      C1494   1.418       .  A
C1493      H1498   1.070       .  S
C1494      C1495   1.446       .  A
C1495      C1496   1.408       .  A
C1495      S1499   1.808       .  S
C1496      H1500   1.084       .  S
S1497      H1502   1.408       .  S
S1499      H1503   1.395       .  S
C1505      C1506   1.394       .  A
C1505      C1510   1.406       .  A
C1505      H1515   1.085       .  S
C1506      C1511   1.487   1_554  S
C1506      C1507   1.405       .  A
C1507      C1508   1.394       .  A
C1507      S1512   1.805       .  S
C1508      C1509   1.423       .  A
C1508      H1513   1.084       .  S
C1509      C1510   1.449       .  A
C1510      S1514   1.803       .  S
C1511      C1516   1.403       .  A
C1511      C1520   1.388       .  A
S1512      H1528   1.407   1_554  S
S1514      H1525   1.404       .  S
C1516      C1517   1.411       .  A
C1516      S1521   1.804       .  S
C1517      C1518   1.425       .  A
C1517      H1522   1.081       .  S
C1518      C1519   1.446       .  A
C1519      C1520   1.392       .  A
C1519      S1523   1.807       .  S
C1520      H1524   1.086       .  S
S1521      H1526   1.407       .  S
S1523      H1527   1.387       .  S
C1529      C1530   1.394       .  A
C1529      C1534   1.404       .  A
C1529      H1539   1.083       .  S
C1530      C1535   1.481       .  S
C1530      C1531   1.404       .  A
C1531      C1532   1.397       .  A
C1531      S1536   1.805       .  S
C1532      C1533   1.423       .  A
C1532      H1537   1.078       .  S
C1533      C1534   1.438       .  A
C1534      S1538   1.808       .  S
C1535      C1540   1.410       .  A
C1535      C1544   1.398       .  A
S1536      H1552   1.406       .  S
S1538      H1549   1.406       .  S
C1540      C1541   1.406       .  A
C1540      S1545   1.807       .  S
C1541      C1542   1.407       .  A
C1541      H1546   1.083       .  S
C1542      C1543   1.420       .  A
C1543      C1544   1.396       .  A
C1543      S1547   1.804       .  S
C1544      H1548   1.084       .  S
S1545      H1550   1.407       .  S
S1547      H1551   1.408       .  S
C1553      C1554   1.401       .  A
C1553      C1558   1.399       .  A
C1553      H1563   1.084       .  S
C1554      C1559   1.481       .  S
C1554      C1555   1.413       .  A
C1555      C1556   1.401       .  A
C1555      S1560   1.805       .  S
C1556      C1557   1.405       .  A
C1556      H1561   1.084       .  S
C1557      C1558   1.416       .  A
C1558      S1562   1.804       .  S
C1559      C1564   1.400       .  A
C1559      C1568   1.391       .  A
S1560      H1576   1.406       .  S
S1562      H1573   1.407       .  S
C1564      C1565   1.402       .  A
C1564      S1569   1.806       .  S
C1565      C1566   1.423       .  A
C1565      H1570   1.082       .  S
C1566      C1567   1.448       .  A
C1567      C1568   1.403       .  A
C1567      S1571   1.814       .  S
C1568      H1572   1.084       .  S
S1569      H1574   1.406       .  S
S1571      H1575   1.407       .  S
C1577      C1578   1.396       .  A
C1577      C1582   1.406       .  A
C1577      H1587   1.085       .  S
C1578      C1583   1.480       .  S
C1578      C1579   1.399       .  A
C1579      C1580   1.391       .  A
C1579      S1584   1.805       .  S
C1580      C1581   1.424       .  A
C1580      H1585   1.081       .  S
C1581      C1582   1.447       .  A
C1582      S1586   1.811       .  S
C1583      C1588   1.408       .  A
C1583      C1592   1.402       .  A
S1584      H1600   1.406       .  S
S1586      H1597   1.393       .  S
C1588      C1589   1.402       .  A
C1588      S1593   1.808       .  S
C1589      C1590   1.408       .  A
C1589      H1594   1.083       .  S
C1590      C1591   1.415       .  A
C1591      C1592   1.400       .  A
C1591      S1595   1.802       .  S
C1592      H1596   1.084       .  S
S1593      H1598   1.407       .  S
S1595      H1599   1.407       .  S
C1601      C1602   1.393       .  A
C1601      C1606   1.400       .  A
C1601      H1611   1.085       .  S
C1602      C1607   1.488   1_455  S
C1602      C1603   1.406       .  A
C1603      C1604   1.401       .  A
C1603      S1608   1.806       .  S
C1604      C1605   1.424       .  A
C1604      H1609   1.074       .  S
C1605      C1606   1.445       .  A
C1606      S1610   1.812       .  S
C1607      C1612   1.402       .  A
C1607      C1616   1.399       .  A
S1608      H1624   1.406   1_455  S
S1610      H1621   1.392       .  S
C1612      C1613   1.399       .  A
C1612      S1617   1.809       .  S
C1613      C1614   1.420       .  A
C1613      H1618   1.073       .  S
C1614      C1615   1.438       .  A
C1615      C1616   1.410       .  A
C1615      S1619   1.810       .  S
C1616      H1620   1.082       .  S
S1617      H1622   1.407       .  S
S1619      H1623   1.406       .  S
C1625      C1626   1.401       .  A
C1625      C1630   1.400       .  A
C1625      H1635   1.084       .  S
C1626      C1631   1.475       .  S
C1626      C1627   1.406       .  A
C1627      C1628   1.395       .  A
C1627      S1632   1.805       .  S
C1628      C1629   1.413       .  A
C1628      H1633   1.083       .  S
C1629      C1630   1.419       .  A
C1630      S1634   1.800       .  S
C1631      C1636   1.398       .  A
C1631      C1640   1.395       .  A
S1632      H1648   1.406       .  S
S1634      H1645   1.408       .  S
C1636      C1637   1.396       .  A
C1636      S1641   1.809       .  S
C1637      C1638   1.422       .  A
C1637      H1642   1.076       .  S
C1638      C1639   1.435       .  A
C1639      C1640   1.404       .  A
C1639      S1643   1.809       .  S
C1640      H1644   1.083       .  S
S1641      H1646   1.407       .  S
S1643      H1647   1.407       .  S
C1649      C1650   1.400       .  A
C1649      C1654   1.411       .  A
C1649      H1659   1.083       .  S
C1650      C1655   1.483       .  S
C1650      C1651   1.402       .  A
C1651      C1652   1.392       .  A
C1651      S1656   1.806       .  S
C1652      C1653   1.420       .  A
C1652      H1657   1.079       .  S
C1653      C1654   1.436       .  A
C1654      S1658   1.811       .  S
C1655      C1660   1.410       .  A
C1655      C1664   1.400       .  A
S1656      H1672   1.405       .  S
S1658      H1669   1.406       .  S
C1660      C1661   1.406       .  A
C1660      S1665   1.807       .  S
C1661      C1662   1.407       .  A
C1661      H1666   1.083       .  S
C1662      C1663   1.419       .  A
C1663      C1664   1.399       .  A
C1663      S1667   1.803       .  S
C1664      H1668   1.084       .  S
S1665      H1670   1.407       .  S
S1667      H1671   1.408       .  S
C1673      C1674   1.393       .  A
C1673      C1678   1.397       .  A
C1673      H1683   1.085       .  S
C1674      C1679   1.470       .  S
C1674      C1675   1.400       .  A
C1675      C1676   1.394       .  A
C1675      S1680   1.806       .  S
C1676      C1677   1.422       .  A
C1676      H1681   1.073       .  S
C1677      C1678   1.443       .  A
C1678      S1682   1.810       .  S
C1679      C1684   1.399       .  A
C1679      C1688   1.395       .  A
S1680      H1696   1.405       .  S
S1682      H1693   1.394       .  S
C1684      C1685   1.395       .  A
C1684      S1689   1.808       .  S
C1685      C1686   1.419       .  A
C1685      H1690   1.078       .  S
C1686      C1687   1.435       .  A
C1687      C1688   1.404       .  A
C1687      S1691   1.813       .  S
C1688      H1692   1.083       .  S
S1689      H1694   1.407       .  S
S1691      H1695   1.406       .  S
C1697      C1698   1.394       .  A
C1697      C1702   1.399       .  A
C1697      H1707   1.084       .  S
C1698      C1703   1.481       .  S
C1698      C1699   1.403       .  A
C1699      C1700   1.397       .  A
C1699      S1704   1.805       .  S
C1700      C1701   1.423       .  A
C1700      H1705   1.074       .  S
C1701      C1702   1.442       .  A
C1702      S1706   1.809       .  S
C1703      C1708   1.410       .  A
C1703      C1712   1.401       .  A
S1704      H1720   1.406       .  S
S1706      H1717   1.396       .  S
C1708      C1709   1.404       .  A
C1708      S1713   1.807       .  S
C1709      C1710   1.403       .  A
C1709      H1714   1.083       .  S
C1710      C1711   1.414       .  A
C1711      C1712   1.402       .  A
C1711      S1715   1.809       .  S
C1712      H1716   1.083       .  S
S1713      H1718   1.407       .  S
S1715      H1719   1.407       .  S
C1721      C1722   1.403       .  A
C1721      C1726   1.402       .  A
C1721      H1731   1.084       .  S
C1722      C1727   1.479       .  S
C1722      C1723   1.411       .  A
C1723      C1724   1.399       .  A
C1723      S1728   1.805       .  S
C1724      C1725   1.403       .  A
C1724      H1729   1.084       .  S
C1725      C1726   1.413       .  A
C1726      S1730   1.805       .  S
C1727      C1732   1.399       .  A
C1727      C1736   1.394       .  A
S1728      H1744   1.404       .  S
S1730      H1741   1.403       .  S
C1732      C1733   1.399       .  A
C1732      S1737   1.809       .  S
C1733      C1734   1.423       .  A
C1733      H1738   1.073       .  S
C1734      C1735   1.442       .  A
C1735      C1736   1.406       .  A
C1735      S1739   1.815       .  S
C1736      H1740   1.082       .  S
S1737      H1742   1.407       .  S
S1739      H1743   1.406       .  S
C1745      C1746   1.399       .  A
C1745      C1750   1.404       .  A
C1745      H1755   1.081       .  S
C1746      C1751   1.500       .  S
C1746      C1747   1.410       .  A
C1747      C1748   1.398       .  A
C1747      S1752   1.806       .  S
C1748      C1749   1.420       .  A
C1748      H1753   1.073       .  S
C1749      C1750   1.440       .  A
C1750      S1754   1.809       .  S
C1751      C1756   1.410       .  A
C1751      C1760   1.400       .  A
S1752      H1768   1.407       .  S
S1754      H1765   1.407       .  S
C1756      C1757   1.401       .  A
C1756      S1761   1.810       .  S
C1757      C1758   1.418       .  A
C1757      H1762   1.080       .  S
C1758      C1759   1.440       .  A
C1759      C1760   1.404       .  A
C1759      S1763   1.813       .  S
C1760      H1764   1.082       .  S
S1761      H1766   1.407       .  S
S1763      H1767   1.408       .  S
C1769      C1770   1.394       .  A
C1769      C1774   1.405       .  A
C1769      H1779   1.084       .  S
C1770      C1775   1.489   1_655  S
C1770      C1771   1.405       .  A
C1771      C1772   1.397       .  A
C1771      S1776   1.805       .  S
C1772      C1773   1.422       .  A
C1772      H1777   1.084       .  S
C1773      C1774   1.445       .  A
C1774      S1778   1.811       .  S
C1775      C1780   1.404       .  A
C1775      C1784   1.400       .  A
S1776      H1792   1.406   1_655  S
S1778      H1789   1.408       .  S
C1780      C1781   1.396       .  A
C1780      S1785   1.811       .  S
C1781      C1782   1.423       .  A
C1781      H1786   1.074       .  S
C1782      C1783   1.433       .  A
C1783      C1784   1.409       .  A
C1783      S1787   1.808       .  S
C1784      H1788   1.082       .  S
S1785      H1790   1.407       .  S
S1787      H1791   1.406       .  S
C1793      C1794   1.402       .  A
C1793      C1798   1.403       .  A
C1793      H1803   1.084       .  S
C1794      C1799   1.484       .  S
C1794      C1795   1.412       .  A
C1795      C1796   1.400       .  A
C1795      S1800   1.804       .  S
C1796      C1797   1.406       .  A
C1796      H1801   1.084       .  S
C1797      C1798   1.418       .  A
C1798      S1802   1.803       .  S
C1799      C1804   1.400       .  A
C1799      C1808   1.396       .  A
S1800      H1816   1.404       .  S
S1802      H1813   1.407       .  S
C1804      C1805   1.400       .  A
C1804      S1809   1.808       .  S
C1805      C1806   1.425       .  A
C1805      H1810   1.076       .  S
C1806      C1807   1.435       .  A
C1807      C1808   1.408       .  A
C1807      S1811   1.801       .  S
C1808      H1812   1.083       .  S
S1809      H1814   1.407       .  S
S1811      H1815   1.406       .  S
C1817      C1818   1.395       .  A
C1817      C1822   1.403       .  A
C1817      H1827   1.084       .  S
C1818      C1823   1.480       .  S
C1818      C1819   1.402       .  A
C1819      C1820   1.395       .  A
C1819      S1824   1.806       .  S
C1820      C1821   1.424       .  A
C1820      H1825   1.075       .  S
C1821      C1822   1.442       .  A
C1822      S1826   1.810       .  S
C1823      C1828   1.407       .  A
C1823      C1832   1.402       .  A
S1824      H1840   1.405       .  S
S1826      H1837   1.394       .  S
C1828      C1829   1.402       .  A
C1828      S1833   1.808       .  S
C1829      C1830   1.409       .  A
C1829      H1834   1.082       .  S
C1830      C1831   1.417       .  A
C1831      C1832   1.402       .  A
C1831      S1835   1.802       .  S
C1832      H1836   1.084       .  S
S1833      H1838   1.407       .  S
S1835      H1839   1.407       .  S
C1841      C1842   1.401       .  A
C1841      C1846   1.403       .  A
C1841      H1851   1.083       .  S
C1842      C1847   1.475       .  S
C1842      C1843   1.409       .  A
C1843      C1844   1.395       .  A
C1843      S1848   1.805       .  S
C1844      C1845   1.406       .  A
C1844      H1849   1.084       .  S
C1845      C1846   1.417       .  A
C1846      S1850   1.809       .  S
C1847      C1852   1.401       .  A
C1847      C1856   1.392       .  A
S1848      H1864   1.406       .  S
S1850      H1861   1.407       .  S
C1852      C1853   1.398       .  A
C1852      S1857   1.809       .  S
C1853      C1854   1.420       .  A
C1853      H1858   1.075       .  S
C1854      C1855   1.439       .  A
C1855      C1856   1.402       .  A
C1855      S1859   1.813       .  S
C1856      H1860   1.083       .  S
S1857      H1862   1.407       .  S
S1859      H1863   1.406       .  S
C1865      C1866   1.395       .  A
C1865      C1870   1.404       .  A
C1865      H1875   1.083       .  S
C1866      C1871   1.484       .  S
C1866      C1867   1.405       .  A
C1867      C1868   1.400       .  A
C1867      S1872   1.804       .  S
C1868      C1869   1.421       .  A
C1868      H1873   1.078       .  S
C1869      C1870   1.435       .  A
C1870      S1874   1.802       .  S
C1871      C1876   1.412       .  A
C1871      C1880   1.400       .  A
S1872      H1888   1.406       .  S
S1874      H1885   1.407       .  S
C1876      C1877   1.408       .  A
C1876      S1881   1.807       .  S
C1877      C1878   1.405       .  A
C1877      H1882   1.083       .  S
C1878      C1879   1.415       .  A
C1879      C1880   1.398       .  A
C1879      S1883   1.805       .  S
C1880      H1884   1.084       .  S
S1881      H1886   1.407       .  S
S1883      H1887   1.407       .  S
C1889      C1890   1.402       .  A
C1889      C1894   1.398       .  A
C1889      H1899   1.084       .  S
C1890      C1895   1.481       .  S
C1890      C1891   1.413       .  A
C1891      C1892   1.402       .  A
C1891      S1896   1.804       .  S
C1892      C1893   1.402       .  A
C1892      H1897   1.084       .  S
C1893      C1894   1.414       .  A
C1894      S1898   1.805       .  S
C1895      C1900   1.401       .  A
C1895      C1904   1.394       .  A
S1896      H1912   1.406       .  S
S1898      H1909   1.407       .  S
C1900      C1901   1.399       .  A
C1900      S1905   1.809       .  S
C1901      C1902   1.424       .  A
C1901      H1906   1.075       .  S
C1902      C1903   1.442       .  A
C1903      C1904   1.401       .  A
C1903      S1907   1.810       .  S
C1904      H1908   1.084       .  S
S1905      H1910   1.407       .  S
S1907      H1911   1.392   1_565  S
C1913      C1914   1.393       .  A
C1913      C1918   1.405       .  A
C1913      H1923   1.083       .  S
C1914      C1919   1.477       .  S
C1914      C1915   1.402       .  A
C1915      C1916   1.396       .  A
C1915      S1920   1.805       .  S
C1916      C1917   1.421       .  A
C1916      H1921   1.076       .  S
C1917      C1918   1.443       .  A
C1918      S1922   1.813       .  S
C1919      C1924   1.405       .  A
C1919      C1928   1.402       .  A
S1920      H1936   1.405       .  S
S1922      H1933   1.406       .  S
C1924      C1925   1.399       .  A
C1924      S1929   1.807       .  S
C1925      C1926   1.410       .  A
C1925      H1930   1.082       .  S
C1926      C1927   1.418       .  A
C1927      C1928   1.401       .  A
C1927      S1931   1.799       .  S
C1928      H1932   1.084       .  S
S1929      H1934   1.407       .  S
S1931      H1935   1.407       .  S
