geometry optimzed in LAMMPS
_audit_creation_date              2020-11-30 
_audit_creation_method            'lammps2cif' 
_symmetry_space_group_name_H-M    'P1' 
_symmetry_Int_Tables_number       1 
_symmetry_cell_setting            triclinic 
loop_ 
_symmetry_equiv_pos_as_xyz 
  x,y,z 
_cell_length_a                    28.36319575 
_cell_length_b                    27.76793159398506 
_cell_length_c                    41.310392405938686 
_cell_angle_alpha                 88.62804265969503 
_cell_angle_beta                  91.00209245070948 
_cell_angle_gamma                 118.54604673730185 
loop_ 
_atom_site_label 
_atom_site_type_symbol 
_atom_site_fract_x 
_atom_site_fract_y 
_atom_site_fract_z 
_atom_site_charge 
O1          O  0.33171934  0.10496822  0.75393532    -0.81400
O2          O  0.28336098  0.08527861  0.60444395    -0.66100
O3          O  0.33257855  0.07574514  0.68969209    -1.12700
C4          C  0.44772838  0.26268654  0.66477895     1.05500
O5          O  0.36614777  0.11426957  0.58813899    -0.79300
O6          O  0.45846375  0.16694946  0.62367196    -0.66900
Ni7        Ni  0.28293884  0.04921636  0.72481922     1.34900
C8          C  0.47112788  0.14772919  0.64852392     0.84200
O9          O  0.25224029  0.00540777  0.64754919    -0.79900
O10         O  0.22986193  0.98886568  0.69988553    -0.90100
C11         C  0.31565211  0.08463763  0.58391712     0.83800
O12         O  0.24789991  0.09271484  0.71552591    -0.68300
O13         O  0.43575466  0.24944140  0.63504633    -0.87600
C14         C  0.23338620  0.10693383  0.68920885     0.84600
C15         C  0.22265257  0.97523587  0.67015919     1.06200
H16         H  0.33949556  0.17589624  0.65157754     0.38000
O17         O  0.35701292  0.15370327  0.64917667    -1.10300
O18         O  0.44323735  0.13458821  0.67446003    -0.66900
Ni19       Ni  0.38741865  0.15115599  0.69010274     1.26300
O20         O  0.24995285  0.10093602  0.66168561    -0.67200
O21         O  0.43733640  0.22827112  0.68838288    -0.79500
C22         C  0.38223714  0.12357335  0.75688771     0.84000
O23         O  0.41290327  0.14425387  0.73255805    -0.66600
Ni24       Ni  0.40091445  0.18187990  0.61240857     1.27400
Ni25       Ni  0.30398994  0.07994162  0.64796452     1.26100
H26         H  0.34917516  0.05253092  0.68826302     0.38500
O27         O  0.49020680  0.99925165  0.09491195    -0.81400
O28         O  0.48689439  0.06111959  0.94671412    -0.66100
O29         O  0.45088152  0.01214651  0.03482174    -1.12700
C30         C  0.49140643  0.87397756  0.99891772     1.05500
O31         O  0.42968086  0.97591029  0.93312878    -0.79300
O32         O  0.39707494  0.87743170  0.96691335    -0.66900
Ni33       Ni  0.48717506  0.05810529  0.07040726     1.34900
C34         C  0.36997768  0.86718296  0.99275624     0.84200
O35         O  0.46067726  0.10224279  0.99752997    -0.79900
O36         O  0.48453760  0.11976066  0.04998318    -0.90100
C37         C  0.45202628  0.02743076  0.92713592     0.83800
O38         O  0.55938084  0.08461650  0.05489198    -0.68300
O39         O  0.49794937  0.89750017  0.97106015    -0.87600
C40         C  0.57971635  0.10417660  0.02714761     0.84600
C41         C  0.47280985  0.13267324  0.02227769     1.06200
H42         H  0.52627376  0.99541395  0.99066203     0.38000
O43         O  0.48784799  0.98114541  0.98950818    -1.10300
O44         O  0.38598958  0.90154182  0.01588195    -0.66900
Ni45       Ni  0.46011343  0.94832796  0.03044053     1.26300
O46         O  0.55054810  0.09169396  0.00137646    -0.67200
O47         O  0.47419858  0.88748892  0.02391348    -0.79500
C48         C  0.45046425  0.95124720  0.09779534     0.84000
O49         O  0.43200906  0.92134786  0.07301046    -0.66600
Ni50       Ni  0.46447130  0.93718454  0.95267756     1.27400
Ni51       Ni  0.47385487  0.04154224  0.99210421     1.26100
H52         H  0.41306347  0.00077887  0.03657917     0.38500
O53         O  0.21914497  0.85915095  0.42840006    -0.81400
O54         O  0.27601695  0.85041541  0.28089550    -0.66100
O55         O  0.26396318  0.89307644  0.36693330    -1.12700
C56         C  0.08748922  0.84718269  0.32773337     1.05500
O57         O  0.24599464  0.90692611  0.26310827    -0.79300
O58         O  0.18455907  0.94577519  0.29481391    -0.66900
Ni59       Ni  0.27741993  0.86016430  0.40453839     1.34900
C60         C  0.19857940  0.97224347  0.32107670     0.84200
O61         O  0.34259434  0.87962307  0.33243418    -0.79900
O62         O  0.33840626  0.85929364  0.38555709    -0.90100
C63         C  0.27183720  0.88058973  0.25832399     0.83800
O64         O  0.23192521  0.78644014  0.39157239    -0.68300
O65         O  0.10481592  0.84390243  0.29988810    -0.87600
C66         C  0.22891272  0.76279645  0.36497362     0.84600
C67         C  0.36139327  0.86847787  0.35816834     1.06200
H68         H  0.17462374  0.81328206  0.32215999     0.38000
O69         O  0.19738430  0.85252162  0.32078469    -1.10300
O70         O  0.21524645  0.95528570  0.34539387    -0.66900
Ni71       Ni  0.19134091  0.88071829  0.36093838     1.26300
O72         O  0.24433472  0.78948846  0.33798525    -0.67200
O73         O  0.11743321  0.86401620  0.35312865    -0.79500
C74         C  0.20581504  0.89681381  0.42839454     0.84000
O75         O  0.19048819  0.91034588  0.40230450    -0.66600
Ni76       Ni  0.17570373  0.87530340  0.28254251     1.27400
Ni77       Ni  0.27025864  0.86704985  0.32538199     1.26100
H78         H  0.28814080  0.93205629  0.36755795     0.38500
O79         O  0.78356281  0.66222948  0.56556349    -0.81400
O80         O  0.71902394  0.59778818  0.71424182    -0.66100
O81         O  0.75307727  0.66376387  0.62955260    -1.12700
C82         C  0.93182143  0.73586441  0.67013496     1.05500
O83         O  0.77352457  0.67643725  0.73682545    -0.79300
O84         O  0.84246712  0.76682182  0.70334573    -0.66900
Ni85       Ni  0.72527541  0.61524336  0.59378558     1.34900
C86         C  0.83725275  0.78632634  0.67625464     0.84200
O87         O  0.66107096  0.60013459  0.66400516    -0.79900
O88         O  0.66087075  0.56420299  0.61633863    -0.90100
C89         C  0.73504344  0.62775370  0.73896663     0.83800
O90         O  0.76312415  0.57692864  0.60779628    -0.68300
O91         O  0.91089509  0.72442663  0.69822452    -0.87600
C92         C  0.75771541  0.55305836  0.63522956     0.84600
C93         C  0.63729753  0.56614484  0.64188904     1.06200
H94         H  0.82092373  0.63137575  0.67708884     0.38000
O95         O  0.81063197  0.65987190  0.67711529    -1.10300
O96         O  0.82938197  0.76123767  0.64991118    -0.66900
Ni97       Ni  0.82907280  0.69650655  0.63591802     1.26300
O98         O  0.73436407  0.56190138  0.65873385    -0.67200
O99         O  0.90501357  0.72832871  0.64379585    -0.79500
C100        C  0.82057626  0.71163147  0.56771731     0.84000
O101        O  0.84336040  0.73250801  0.59434899    -0.66600
Ni102      Ni  0.84111227  0.69947892  0.71566041     1.27400
Ni103      Ni  0.73534224  0.62933773  0.67141713     1.26100
H104        H  0.74146252  0.69125987  0.62763120     0.38500
O105        O  0.59611261  0.54351887  0.07622738    -0.81400
O106        O  0.58990787  0.51815505  0.92327651    -0.66100
O107        O  0.59291503  0.56479881  0.00938548    -1.12700
C108        C  0.40494775  0.45595624  0.00473834     1.05500
O109        O  0.51546374  0.51783864  0.90590550    -0.79300
O110        O  0.48121524  0.56469787  0.95014281    -0.66900
Ni111      Ni  0.63940920  0.55296795  0.03874012     1.34900
C112        C  0.49360080  0.59257596  0.97584880     0.84200
O113        O  0.66558073  0.59012007  0.95991240    -0.79900
O114        O  0.69153805  0.56564673  0.00575781    -0.90100
C115        C  0.56101429  0.52114996  0.90059026     0.83800
O116        O  0.60132767  0.47574031  0.03146024    -0.68300
O117        O  0.41002195  0.46268081  0.97410841    -0.87600
C118        C  0.59616141  0.45381866  0.00406333     0.84600
C119        C  0.70106578  0.58693151  0.97732312     1.06200
H120        H  0.51103277  0.45487729  0.97604887     0.38000
O121        O  0.51754414  0.49226307  0.97405028    -1.10300
O122        O  0.50485167  0.57663337  0.00255848    -0.66900
Ni123      Ni  0.51841574  0.51844644  0.01702395     1.26300
O124        O  0.60669728  0.48176559  0.97783685    -0.67200
O125        O  0.44418672  0.47190586  0.02433526    -0.79500
C126        C  0.55598554  0.55074379  0.08177769     0.84000
O127        O  0.52256801  0.54646711  0.05964952    -0.66600
Ni128      Ni  0.46646693  0.49140804  0.94251292     1.27400
Ni129      Ni  0.59174870  0.54106673  0.96623352     1.26100
H130        H  0.60200683  0.60307304  0.00921736     0.38500
O131        O  0.67589258  0.77572030  0.41836233    -0.81400
O132        O  0.59642277  0.68715317  0.27588056    -0.66100
O133        O  0.66528808  0.72442713  0.35882073    -1.12700
C134        C  0.74884040  0.90117271  0.30943588     1.05500
O135        O  0.67551955  0.73115138  0.25211358    -0.79300
O136        O  0.76921472  0.80742585  0.27919869    -0.66900
Ni137      Ni  0.62222992  0.71156104  0.39621668     1.34900
C138        C  0.78737152  0.79575759  0.30479861     0.84200
O139        O  0.58976233  0.63072354  0.33027146    -0.79900
O140        O  0.56557466  0.64392067  0.37927674    -0.90100
C141        C  0.62689797  0.69316890  0.25225612     0.83800
O142        O  0.58929111  0.75325856  0.37906527    -0.68300
O143        O  0.72883509  0.87815953  0.28247618    -0.87600
C144        C  0.56314732  0.74465005  0.35255643     0.84600
C145        C  0.55965488  0.61412271  0.35483733     1.06200
H146        H  0.64388986  0.79723912  0.30988942     0.38000
O147        O  0.66733308  0.78108285  0.30887592    -1.10300
O148        O  0.76251038  0.78381920  0.33146213    -0.66900
Ni149      Ni  0.70858986  0.79955294  0.34760031     1.26300
O150        O  0.56800750  0.71645588  0.33015844    -0.67200
O151        O  0.74911887  0.87516337  0.33533866    -0.79500
C152        C  0.72669118  0.80069742  0.41500233     0.84000
O153        O  0.74813298  0.81338470  0.38727028    -0.66600
Ni154      Ni  0.70191875  0.80439984  0.26846068     1.27400
Ni155      Ni  0.62816435  0.70526670  0.31829676     1.26100
H156        H  0.68675177  0.70617392  0.36161044     0.38500
O157        O  0.86222054  0.17762637  0.58502943    -0.81400
O158        O  0.87945300  0.28183806  0.71983349    -0.66100
O159        O  0.90784357  0.25004720  0.63524807    -1.12700
C160        C  0.89911923  0.09523456  0.69317154     1.05500
O161        O  0.94904815  0.27225071  0.73695706    -0.79300
O162        O  0.99294263  0.20874136  0.71097263    -0.66900
Ni163      Ni  0.86108805  0.24261489  0.59944549     1.34900
C164        C  0.01146430  0.21434087  0.68249379     0.84200
O165        O  0.88964495  0.33193481  0.66133310    -0.79900
O166        O  0.85926033  0.30864305  0.61024149    -0.90100
C167        C  0.91596139  0.29069731  0.74088104     0.83800
O168        O  0.79251821  0.19944166  0.62056062    -0.68300
O169        O  0.89987907  0.11981641  0.71921650    -0.87600
C170        C  0.77763005  0.20346929  0.64892096     0.84600
C171        C  0.87187575  0.34060756  0.63432693     1.06200
H172        H  0.85109720  0.17115112  0.69191262     0.38000
O173        O  0.88815975  0.19852330  0.68900726    -1.10300
O174        O  0.98711881  0.22216998  0.65822585    -0.66900
Ni175      Ni  0.91014662  0.18442584  0.64904801     1.26300
O176        O  0.81163032  0.22801787  0.67152025    -0.67200
O177        O  0.90734762  0.11752254  0.66479663    -0.79500
C178        C  0.90633154  0.17664127  0.58195330     0.84000
O179        O  0.93181724  0.17504405  0.60712611    -0.66600
Ni180      Ni  0.92444071  0.19587121  0.72726772     1.27400
Ni181      Ni  0.88968847  0.26585787  0.67641967     1.26100
H182        H  0.94364216  0.27815414  0.62976309     0.38500
O183        O  0.04193373  0.48118635  0.91790273    -0.81400
O184        O  0.06237108  0.46833590  0.06389754    -0.66100
O185        O  0.02406770  0.42739783  0.97609344    -1.12700
C186        C  0.91314741  0.50714470  0.99524740     1.05500
O187        O  0.97582973  0.41836356  0.07480935    -0.79300
O188        O  0.88945245  0.38812697  0.03381451    -0.66900
Ni189      Ni  0.07665129  0.44887534  0.94338294     1.34900
C190        C  0.87956962  0.36339786  0.00701648     0.84200
O191        O  0.09955249  0.42485676  0.02032983    -0.79900
O192        O  0.11284208  0.41654258  0.96752839    -0.90100
C193        C  0.02507599  0.43674392  0.08295679     0.83800
O194        O  0.12714055  0.52064556  0.95792631    -0.68300
O195        O  0.91712286  0.49676193  0.02528750    -0.87600
C196        C  0.13498244  0.54786302  0.98364515     0.84600
C197        C  0.12078325  0.41141162  0.99765019     1.06200
H198        H  0.01623329  0.51642081  0.01546525     0.38000
O199        O  0.99698469  0.47680941  0.01580455    -1.10300
O200        O  0.91163084  0.38313936  0.98295256    -0.66900
Ni201      Ni  0.97352358  0.45486444  0.97262463     1.26300
O202        O  0.10579873  0.52652197  0.00873893    -0.67200
O203        O  0.92779934  0.48806573  0.97179872    -0.79500
C204        C  0.99459828  0.45112699  0.90764858     0.84000
O205        O  0.95631801  0.43410829  0.92780436    -0.66600
Ni206      Ni  0.94625231  0.45688520  0.04910345     1.27400
Ni207      Ni  0.04827159  0.45152571  0.01902995     1.26100
H208        H  0.00445717  0.38779364  0.97663253     0.38500
O209        O  0.10650722  0.30394995  0.24969069    -0.81400
O210        O  0.07185300  0.24850478  0.39827361    -0.66100
O211        O  0.07358527  0.30441904  0.31265351    -1.12700
C212        C  0.25707515  0.41364464  0.33929279     1.05500
O213        O  0.11061271  0.33366205  0.41603869    -0.79300
O214        O  0.16564001  0.42921478  0.37906864    -0.66900
Ni215      Ni  0.04713184  0.25683945  0.27662981     1.34900
C216        C  0.15033170  0.44332511  0.35307909     0.84200
O217        O  0.99688822  0.22353260  0.35306721    -0.79900
O218        O  0.98450972  0.20659929  0.29993027    -0.90100
C219        C  0.08139648  0.28218279  0.42096013     0.83800
O220        O  0.08265637  0.21461334  0.28685847    -0.68300
O221        O  0.24278258  0.40083952  0.36879332    -0.87600
C222        C  0.09394865  0.19777332  0.31328096     0.84600
C223        C  0.96793508  0.19789488  0.32906302     1.06200
H224        H  0.16564146  0.30179875  0.35261129     0.38000
O225        O  0.14630817  0.32231895  0.35448623    -1.10300
O226        O  0.13563178  0.41328703  0.32821370    -0.66900
Ni227      Ni  0.14867277  0.35533503  0.31323690     1.26300
O228        O  0.08817010  0.21451768  0.34085261    -0.67200
O229        O  0.22445411  0.40269683  0.31544565    -0.79500
C230        C  0.12489420  0.35540293  0.24707712     0.84000
O231        O  0.14655197  0.38541483  0.27131372    -0.66600
Ni232      Ni  0.17604094  0.36729512  0.39099679     1.27400
Ni233      Ni  0.07184274  0.27254101  0.35451132     1.26100
H234        H  0.05340791  0.32422002  0.31363307     0.38500
C235        C  0.11791481  0.37923823  0.21610287    -0.05800
C236        C  0.15333024  0.43343729  0.20639540    -0.05700
C237        C  0.14350808  0.45575711  0.17782346    -0.23900
C238        C  0.09716478  0.42479207  0.15914250     0.18400
C239        C  0.06078920  0.37079948  0.16942103     0.15600
C240        C  0.07192535  0.34818358  0.19728473    -0.18900
C241        C  0.01321862  0.34033404  0.15201411    -0.20700
C242        C  0.00169799  0.36281005  0.12446549    -0.13300
C243        C  0.03799135  0.41574751  0.11323865     0.03400
C244        C  0.08601120  0.44670764  0.13065267    -0.25400
H245        H  0.18860028  0.45836916  0.22083672     0.08500
H246        H  0.17165145  0.49743184  0.17062823     0.12100
H247        H  0.04355188  0.30684343  0.20504502     0.12000
H248        H  0.98473080  0.29908955  0.15978058     0.11800
H249        H  0.96465709  0.33808210  0.11143305     0.12300
H250        H  0.11401946  0.48779455  0.12234974     0.14300
C251        C  0.92055327  0.32276488  0.77006858    -0.05800
C252        C  0.87447898  0.31547245  0.78644078    -0.05700
C253        C  0.87900229  0.34122114  0.81603997    -0.23900
C254        C  0.92976014  0.37568011  0.82942147     0.18400
C255        C  0.97616650  0.38572551  0.81197718     0.15600
C256        C  0.97129801  0.35875422  0.78275975    -0.18900
C257        C  0.02690007  0.42143560  0.82445211    -0.20700
C258        C  0.03197547  0.44483023  0.85466492    -0.13300
C259        C  0.98651331  0.43264363  0.87346244     0.03400
C260        C  0.93515559  0.39890595  0.86025406    -0.25400
H261        H  0.83492496  0.28802516  0.77700449     0.08500
H262        H  0.84284550  0.33334932  0.82873928     0.12100
H263        H  0.00704499  0.36524035  0.77004035     0.12000
H264        H  0.06285740  0.43022317  0.81120283     0.11800
H265        H  0.07205808  0.47082029  0.86390182     0.12300
H266        H  0.89971109  0.38937735  0.87426843     0.14300
C267        C  0.05693499  0.26219877  0.45324296    -0.05800
C268        C  0.08827133  0.28322416  0.48126062    -0.05700
C269        C  0.06555297  0.26677279  0.51201287    -0.23900
C270        C  0.01052855  0.23035862  0.51534894     0.18400
C271        C  0.97829747  0.20944702  0.48733765     0.15600
C272        C  0.00198382  0.22446377  0.45642333    -0.18900
C273        C  0.92271083  0.17548064  0.49079508    -0.20700
C274        C  0.89916867  0.16358583  0.52157453    -0.13300
C275        C  0.93096067  0.18363096  0.54954984     0.03400
C276        C  0.98690111  0.21622164  0.54619302    -0.25400
H277        H  0.13058088  0.31237867  0.47930742     0.08500
H278        H  0.09079390  0.28359301  0.53319239     0.12100
H279        H  0.97737131  0.20879742  0.43488113     0.12000
H280        H  0.89722264  0.15945684  0.46963384     0.11800
H281        H  0.85601747  0.13902363  0.52353640     0.12300
H282        H  0.01171821  0.23311455  0.56754928     0.14300
C283        C  0.51132205  0.56154222  0.35308987    -0.05800
C284        C  0.49166633  0.52853178  0.38093725    -0.05700
C285        C  0.43887675  0.48658909  0.38165665    -0.23900
C286        C  0.40493754  0.47940907  0.35507556     0.18400
C287        C  0.42534798  0.51090590  0.32637839     0.15600
C288        C  0.47917864  0.55064666  0.32522003    -0.18900
C289        C  0.39062513  0.50548706  0.30047518    -0.20700
C290        C  0.33543762  0.47199714  0.30394347    -0.13300
C291        C  0.31488180  0.44302774  0.33312822     0.03400
C292        C  0.35014060  0.44463816  0.35784042    -0.25400
H293        H  0.51629622  0.53711242  0.40258401     0.08500
H294        H  0.42357375  0.46262643  0.40377315     0.12100
H295        H  0.49432496  0.57714579  0.30395390     0.12000
H296        H  0.40578139  0.52937796  0.27832148     0.11800
H297        H  0.30884717  0.47062766  0.28442599     0.12300
H298        H  0.33472938  0.42142247  0.38020142     0.14300
C299        C  0.91375714  0.15243332  0.33483210    -0.05800
C300        C  0.90022520  0.12514392  0.36506367    -0.05700
C301        C  0.85763923  0.07180396  0.36739818    -0.23900
C302        C  0.82951799  0.04523417  0.33937265     0.18400
C303        C  0.83920819  0.07497810  0.30980837     0.15600
C304        C  0.87985633  0.12910534  0.30810392    -0.18900
C305        C  0.81245400  0.04856227  0.28154814    -0.20700
C306        C  0.78065659  0.99193334  0.28178809    -0.13300
C307        C  0.77440544  0.96127369  0.31045693     0.03400
C308        C  0.79605752  0.98854007  0.33964294    -0.25400
H309        H  0.92532036  0.14286762  0.38616660     0.08500
H310        H  0.85001180  0.04983215  0.39039055     0.12100
H311        H  0.88916468  0.15060810  0.28488799     0.12000
H312        H  0.81918505  0.07107761  0.25879684     0.11800
H313        H  0.76328778  0.97201194  0.25913487     0.12300
H314        H  0.79044956  0.96539027  0.36206921     0.14300
C315        C  0.55071053  0.56703995  0.11511529    -0.05800
C316        C  0.51889865  0.59211462  0.12130147    -0.05700
C317        C  0.52272440  0.61712810  0.15112520    -0.23900
C318        C  0.55886531  0.61805029  0.17517075     0.18400
C319        C  0.58858805  0.59015684  0.16978752     0.15600
C320        C  0.58364122  0.56423824  0.14021008    -0.18900
C321        C  0.62556569  0.59158378  0.19320415    -0.20700
C322        C  0.63585706  0.62343070  0.22068883    -0.13300
C323        C  0.60834109  0.65315377  0.22582469     0.03400
C324        C  0.56829613  0.64882319  0.20359686    -0.25400
H325        H  0.49313686  0.59489558  0.10252257     0.08500
H326        H  0.49930080  0.63796062  0.15477262     0.12100
H327        H  0.60811777  0.54467228  0.13606916     0.12000
H328        H  0.64847933  0.57021134  0.18951089     0.11800
H329        H  0.66665559  0.62622989  0.23761033     0.12300
H330        H  0.54724830  0.67209845  0.20735302     0.14300
C331        C  0.75289616  0.60009406  0.96345364    -0.05800
C332        C  0.75348271  0.57173819  0.93592402    -0.05700
C333        C  0.79343571  0.55642565  0.93264783    -0.23900
C334        C  0.83176208  0.56838332  0.95735403     0.18400
C335        C  0.83559390  0.60423788  0.98230116     0.15600
C336        C  0.79738703  0.62201990  0.98421593    -0.18900
C337        C  0.87221025  0.61499765  0.00769739    -0.20700
C338        C  0.89947168  0.58485215  0.01078545    -0.13300
C339        C  0.89166867  0.54487363  0.98801325     0.03400
C340        C  0.86121381  0.53981032  0.95994869    -0.25400
H341        H  0.71931410  0.55465582  0.91960268     0.08500
H342        H  0.79042820  0.52984070  0.91304384     0.12100
H343        H  0.79686115  0.64439128  0.00527888     0.12000
H344        H  0.87618699  0.64301443  0.02667707     0.11800
H345        H  0.92479317  0.59095596  0.03189778     0.12300
H346        H  0.85600694  0.50970333  0.94204114     0.14300
C347        C  0.15977283  0.39229256  0.00582730    -0.05800
C348        C  0.16600101  0.35710243  0.98453399    -0.05700
C349        C  0.21336208  0.35365758  0.98455234    -0.23900
C350        C  0.25537919  0.38627567  0.00544853     0.18400
C351        C  0.24699372  0.41663937  0.02961528     0.15600
C352        C  0.19840310  0.41843745  0.03013578    -0.18900
C353        C  0.28948279  0.44961314  0.05028498    -0.20700
C354        C  0.34114839  0.45769029  0.04440692    -0.13300
C355        C  0.35055768  0.43271108  0.01791652     0.03400
C356        C  0.30707554  0.39401613  0.00004480    -0.25400
H357        H  0.13601526  0.33579528  0.96606115     0.08500
H358        H  0.21884536  0.32937524  0.96632606     0.12100
H359        H  0.19366889  0.44556121  0.04667232     0.12000
H360        H  0.28371495  0.47263431  0.06919959     0.11800
H361        H  0.37437312  0.48751944  0.05856369     0.12300
H362        H  0.31431793  0.37427180  0.97981364     0.14300
C363        C  0.70896367  0.60752112  0.77084164    -0.05800
C364        C  0.74044284  0.62724341  0.79895414    -0.05700
C365        C  0.71753875  0.61196434  0.82955033    -0.23900
C366        C  0.66228558  0.57750682  0.83276789     0.18400
C367        C  0.62970597  0.55694875  0.80485942     0.15600
C368        C  0.65348634  0.57126513  0.77388601    -0.18900
C369        C  0.57395384  0.52385289  0.80863011    -0.20700
C370        C  0.55093163  0.51214711  0.83964540    -0.13300
C371        C  0.58346029  0.53211552  0.86738765     0.03400
C372        C  0.63916447  0.56444457  0.86358437    -0.25400
H373        H  0.78318004  0.65480117  0.79724381     0.08500
H374        H  0.74297772  0.62801926  0.85074159     0.12100
H375        H  0.62876973  0.55614504  0.75234009     0.12000
H376        H  0.54811955  0.50776050  0.78761263     0.11800
H377        H  0.50789154  0.48712771  0.84198517     0.12300
H378        H  0.66454916  0.58107409  0.88473764     0.14300
C379        C  0.84309852  0.84194721  0.67459593    -0.05800
C380        C  0.84427258  0.86665357  0.64423950    -0.05700
C381        C  0.85562068  0.92118019  0.64199404    -0.23900
C382        C  0.86572555  0.95187282  0.67004279     0.18400
C383        C  0.86337634  0.92721933  0.70073135     0.15600
C384        C  0.85191302  0.87233622  0.70283372    -0.18900
C385        C  0.87330031  0.95813109  0.72874785    -0.20700
C386        C  0.88530790  0.01299941  0.72635204    -0.13300
C387        C  0.88772727  0.03775096  0.69588364     0.03400
C388        C  0.87818247  0.00688375  0.66781280    -0.25400
H389        H  0.83778012  0.84429720  0.62202696     0.08500
H390        H  0.85713027  0.93949961  0.61830657     0.12100
H391        H  0.85108349  0.85378299  0.72635387     0.12000
H392        H  0.87177327  0.93991438  0.75246206     0.11800
H393        H  0.89272626  0.03601413  0.74836951     0.12300
H394        H  0.87982043  0.02538295  0.64415485     0.14300
C395        C  0.77930959  0.51415714  0.64042397    -0.05800
C396        C  0.77890870  0.49224211  0.67156974    -0.05700
C397        C  0.80054046  0.45688427  0.67707502    -0.23900
C398        C  0.82280623  0.44238361  0.65152499     0.18400
C399        C  0.82362579  0.46421477  0.62011485     0.15600
C400        C  0.80221926  0.50014175  0.61479654    -0.18900
C401        C  0.84492507  0.44890024  0.59441564    -0.20700
C402        C  0.86332531  0.41078567  0.59952870    -0.13300
C403        C  0.86177929  0.38799696  0.63053347     0.03400
C404        C  0.84265006  0.40506505  0.65664681    -0.25400
H405        H  0.76209231  0.50268058  0.69187312     0.08500
H406        H  0.79943551  0.44052223  0.70129433     0.12100
H407        H  0.80305406  0.51677908  0.59067577     0.12000
H408        H  0.84592471  0.46516391  0.57017889     0.11800
H409        H  0.87756542  0.39796842  0.57898973     0.12300
H410        H  0.84025842  0.38691219  0.68050394     0.14300
C411        C  0.83238604  0.74625189  0.53821446    -0.05800
C412        C  0.85016230  0.73256492  0.51014283    -0.05700
C413        C  0.84323888  0.75182204  0.47970862    -0.23900
C414        C  0.81542202  0.78219200  0.47684764     0.18400
C415        C  0.80008071  0.79860936  0.50518498     0.15600
C416        C  0.81066048  0.78230980  0.53572826    -0.18900
C417        C  0.76885292  0.82537041  0.50249459    -0.20700
C418        C  0.74807154  0.83034400  0.47238975    -0.13300
C419        C  0.76059840  0.81142517  0.44432502     0.03400
C420        C  0.79724917  0.79075193  0.44641483    -0.25400
H421        H  0.86615105  0.70410400  0.51159542     0.08500
H422        H  0.85521661  0.73876043  0.45828094     0.12100
H423        H  0.79555839  0.79169744  0.55730754     0.12000
H424        H  0.75668602  0.83816456  0.52395475     0.11800
H425        H  0.71976932  0.84614250  0.47123822     0.12300
H426        H  0.80621351  0.77510856  0.42488082     0.14300
C427        C  0.52563229  0.76769524  0.34735429    -0.05800
C428        C  0.49183957  0.75345617  0.31988293    -0.05700
C429        C  0.45612274  0.77446183  0.31484897    -0.23900
C430        C  0.45330376  0.81026521  0.33716059     0.18400
C431        C  0.48760650  0.82561344  0.36460231     0.15600
C432        C  0.52351195  0.80441779  0.36948729    -0.18900
C433        C  0.48433750  0.86070576  0.38722334    -0.20700
C434        C  0.44563717  0.87803680  0.38364145    -0.13300
C435        C  0.41009785  0.86170189  0.35704155     0.03400
C436        C  0.41526484  0.82908634  0.33327113    -0.25400
H437        H  0.49257680  0.72551019  0.30230844     0.08500
H438        H  0.43014345  0.76204703  0.29370344     0.12100
H439        H  0.54939609  0.81615577  0.39069218     0.12000
H440        H  0.51029886  0.87302891  0.40838003     0.11800
H441        H  0.44195523  0.90255106  0.40244403     0.12300
H442        H  0.38721064  0.81512467  0.31309195     0.14300
C443        C  0.02996072  0.83228723  0.32974448    -0.05800
C444        C  0.00414348  0.82442727  0.35965321    -0.05700
C445        C  0.95028428  0.81254379  0.36079653    -0.23900
C446        C  0.92164554  0.80905392  0.33206238     0.18400
C447        C  0.94732106  0.81676603  0.30196145     0.15600
C448        C  0.00085065  0.82787286  0.30101106    -0.18900
C449        C  0.91948582  0.81441513  0.27318633    -0.20700
C450        C  0.86687928  0.80571265  0.27414560    -0.13300
C451        C  0.84087024  0.79869742  0.30388777     0.03400
C452        C  0.86834547  0.79949576  0.33284454    -0.25400
H453        H  0.02559405  0.82762564  0.38212914     0.08500
H454        H  0.93128151  0.80686847  0.38413209     0.12100
H455        H  0.02020057  0.83444927  0.27771027     0.12000
H456        H  0.93876712  0.82037467  0.24992036     0.11800
H457        H  0.84686807  0.80545485  0.25153108     0.12300
H458        H  0.84907373  0.79474966  0.35601175     0.14300
C459        C  0.19059294  0.02194599  0.32407019    -0.05800
C460        C  0.19689096  0.04759593  0.35410607    -0.05700
C461        C  0.18031004  0.08750694  0.35831886    -0.23900
C462        C  0.15662005  0.10283954  0.33267585     0.18400
C463        C  0.15122725  0.07838830  0.30226323     0.15600
C464        C  0.16828288  0.03866412  0.29812504    -0.18900
C465        C  0.12763777  0.09306335  0.27650547    -0.20700
C466        C  0.10947596  0.13131943  0.28063077    -0.13300
C467        C  0.11393047  0.15634998  0.31069896     0.03400
C468        C  0.13775799  0.14154296  0.33683470    -0.25400
H469        H  0.21293025  0.03539897  0.37480537     0.08500
H470        H  0.18499009  0.10552589  0.38191414     0.12100
H471        H  0.16222710  0.01926195  0.27485143     0.12000
H472        H  0.12294549  0.07469344  0.25300800     0.11800
H473        H  0.09139415  0.14103339  0.25993622     0.12300
H474        H  0.14186484  0.16015322  0.36018755     0.14300
C475        C  0.20964972  0.70206936  0.36706385    -0.05800
C476        C  0.21288867  0.67905749  0.39730773    -0.05700
C477        C  0.19932567  0.62380300  0.40075257    -0.23900
C478        C  0.18141161  0.58920583  0.37413212     0.18400
C479        C  0.17620577  0.61057244  0.34364355     0.15600
C480        C  0.19084659  0.66709169  0.34012829    -0.18900
C481        C  0.15744323  0.57503244  0.31724512    -0.20700
C482        C  0.14610384  0.51999300  0.32077246    -0.13300
C483        C  0.15329790  0.49884831  0.35078044     0.03400
C484        C  0.17008101  0.53397501  0.37750720    -0.25400
H485        H  0.22753760  0.70431885  0.41854657     0.08500
H486        H  0.20358328  0.60828601  0.42432960     0.12100
H487        H  0.18792679  0.68371055  0.31663342     0.12000
H488        H  0.15267296  0.59008186  0.29364118     0.11800
H489        H  0.13359163  0.49451097  0.29956818     0.12300
H490        H  0.17612016  0.51892560  0.40082040     0.14300
C491        C  0.29730885  0.88700103  0.22600103    -0.05800
C492        C  0.27008020  0.89121965  0.19818799    -0.05700
C493        C  0.29350459  0.90090045  0.16755289    -0.23900
C494        C  0.34559165  0.90822821  0.16394066     0.18400
C495        C  0.37411679  0.90493334  0.19160335     0.15600
C496        C  0.34935813  0.89312068  0.22244909    -0.18900
C497        C  0.42742168  0.91529218  0.18790441    -0.20700
C498        C  0.45227431  0.92963952  0.15740158    -0.13300
C499        C  0.42376314  0.93184741  0.12975522     0.03400
C500        C  0.37011405  0.92043384  0.13323441    -0.25400
H501        H  0.23024723  0.88702281  0.20018534     0.08500
H502        H  0.27119817  0.90382197  0.14671837     0.12100
H503        H  0.37128788  0.89107595  0.24372219     0.12000
H504        H  0.45034843  0.91362053  0.20874270     0.11800
H505        H  0.49383610  0.93906373  0.15537249     0.12300
H506        H  0.34822267  0.92344197  0.11217722     0.14300
C507        C  0.32037059  0.81138110  0.99598966    -0.05800
C508        C  0.28660710  0.79562384  0.02326168    -0.05700
C509        C  0.24364011  0.74154190  0.02694882    -0.23900
C510        C  0.23339195  0.70117549  0.00368622     0.18400
C511        C  0.26726955  0.71641062  0.97645138     0.15600
C512        C  0.30976365  0.77068990  0.97272551    -0.18900
C513        C  0.25856543  0.67698552  0.95326419    -0.20700
C514        C  0.21641034  0.62338138  0.95644972    -0.13300
C515        C  0.18090180  0.60649222  0.98296687     0.03400
C516        C  0.19032039  0.64617579  0.00692994    -0.25400
H517        H  0.29376634  0.82497371  0.04201335     0.08500
H518        H  0.21867268  0.73118648  0.04824064     0.12100
H519        H  0.33549791  0.78080367  0.95178200     0.12000
H520        H  0.28442642  0.68766504  0.93234744     0.11800
H521        H  0.21169589  0.59487558  0.93764707     0.12300
H522        H  0.16409775  0.63465377  0.02769388     0.14300
C523        C  0.63940119  0.14513903  0.02589230    -0.05800
C524        C  0.67047502  0.15597171  0.05453369    -0.05700
C525        C  0.72377039  0.19833472  0.05598150    -0.23900
C526        C  0.74855287  0.23163153  0.02877124     0.18400
C527        C  0.71954344  0.22044894  0.99927606     0.15600
C528        C  0.66512817  0.17751296  0.99796049    -0.18900
C529        C  0.74534976  0.25348938  0.97195755    -0.20700
C530        C  0.79817841  0.29760587  0.97408148    -0.20500
C531        C  0.82676985  0.31084474  0.00368099     0.03400
C532        C  0.80130346  0.27671669  0.03089902    -0.25400
H533        H  0.65304225  0.13245534  0.07648777     0.08500
H534        H  0.74536902  0.20572496  0.07878744     0.12100
H535        H  0.64253120  0.17053154  0.97556174     0.12000
H536        H  0.72428284  0.24587431  0.94895968     0.11800
H537        H  0.81583383  0.32299546  0.95274687     0.12300
H538        H  0.82222734  0.28585838  0.05399394     0.14300
C539        C  0.57595387  0.39424095  0.00204989    -0.05800
C540        C  0.58896027  0.37222928  0.97547432    -0.05700
C541        C  0.56717045  0.31553086  0.97250779    -0.23900
C542        C  0.53148482  0.27994209  0.99587510     0.18400
C543        C  0.51747565  0.30180973  0.02237401     0.15600
C544        C  0.53999061  0.35874108  0.02536037    -0.18900
C545        C  0.48213976  0.26639682  0.04589226    -0.20700
C546        C  0.46363521  0.21006068  0.04435437    -0.13300
C547        C  0.47907481  0.18817381  0.01887614     0.03400
C548        C  0.51139532  0.22305233  0.99400318    -0.25400
H549        H  0.61621760  0.39896776  0.95704264     0.08500
H550        H  0.57845563  0.29956041  0.95207860     0.12100
H551        H  0.52894557  0.37541811  0.04557153     0.12000
H552        H  0.47074556  0.28244973  0.06623081     0.11800
H553        H  0.43927505  0.18370860  0.06391249     0.12300
H554        H  0.52443368  0.20642750  0.97470077     0.14300
C555        C  0.49518290  0.64637488  0.97491484    -0.05800
C556        C  0.49042764  0.66955090  0.94526991    -0.05700
C557        C  0.49220513  0.72050743  0.94430294    -0.23900
C558        C  0.49815913  0.74877387  0.97299229     0.18400
C559        C  0.50280705  0.72598659  0.00299654     0.15600
C560        C  0.50170844  0.67506809  0.00375105    -0.18900
C561        C  0.50728811  0.75401394  0.03170711    -0.20700
C562        C  0.50538390  0.80344814  0.03068698    -0.13300
C563        C  0.50024047  0.82590233  0.00087893     0.03400
C564        C  0.49785134  0.79876455  0.97211844    -0.25400
H565        H  0.48552465  0.64841097  0.92275172     0.08500
H566        H  0.48832017  0.73753084  0.92115134     0.12100
H567        H  0.50512549  0.65752419  0.02683299     0.12000
H568        H  0.51084730  0.73702426  0.05493804     0.11800
H569        H  0.50705303  0.82359629  0.05313018     0.12300
H570        H  0.49300904  0.81510164  0.94893528     0.14300
C571        C  0.40452632  0.11981635  0.78932614    -0.05800
C572        C  0.45966775  0.14994737  0.79664253    -0.05700
C573        C  0.48023571  0.14142764  0.82622870    -0.23900
C574        C  0.44630740  0.10156726  0.84876115     0.18400
C575        C  0.39083745  0.07153708  0.84160068     0.15600
C576        C  0.37037100  0.08151626  0.81246730    -0.18900
C577        C  0.35669078  0.03032496  0.86310113    -0.20700
C578        C  0.37726854  0.01759150  0.89095428    -0.13300
C579        C  0.43228323  0.04651176  0.89857258     0.03400
C580        C  0.46672660  0.08959787  0.87766728    -0.25400
H581        H  0.48699838  0.17958847  0.77930728     0.08500
H582        H  0.52290895  0.16490940  0.83105992     0.12100
H583        H  0.32788988  0.05729846  0.80715010     0.12000
H584        H  0.31410791  0.00680570  0.85793908     0.11800
H585        H  0.34990777  0.98446520  0.90662057     0.12300
H586        H  0.50931677  0.11177904  0.88306183     0.14300
C587        C  0.71850913  0.18209016  0.65566119    -0.05800
C588        C  0.70102088  0.18457488  0.68707336    -0.05700
C589        C  0.64782231  0.17316689  0.69288566    -0.23900
C590        C  0.61024070  0.15931690  0.66742920     0.18400
C591        C  0.62635208  0.15432351  0.63602789     0.15600
C592        C  0.67986069  0.16520298  0.63038197    -0.18900
C593        C  0.58929107  0.14093990  0.61042998    -0.20700
C594        C  0.53817615  0.13560853  0.61536740    -0.13300
C595        C  0.52176094  0.14271717  0.64612060     0.03400
C596        C  0.55788121  0.15293279  0.67242995    -0.25400
H597        H  0.72908100  0.19718479  0.70721005     0.08500
H598        H  0.63660511  0.17701345  0.71723855     0.12100
H599        H  0.69198289  0.16313437  0.60594638     0.12000
H600        H  0.60051160  0.13654484  0.58617899     0.11800
H601        H  0.51177918  0.12758767  0.59460211     0.12300
H602        H  0.54663270  0.15925030  0.69625801     0.14300
C603        C  0.06000499  0.20584122  0.67778888    -0.05800
C604        C  0.07912724  0.20439058  0.64668980    -0.05700
C605        C  0.11776097  0.18662952  0.64225631    -0.23900
C606        C  0.13820625  0.16910145  0.66873663     0.18400
C607        C  0.12008464  0.17120505  0.70002952     0.15600
C608        C  0.08187924  0.18969367  0.70435350    -0.18900
C609        C  0.13939564  0.15341122  0.72664764    -0.20700
C610        C  0.17593071  0.13353315  0.72257954    -0.13300
C611        C  0.19487628  0.13045060  0.69172312     0.03400
C612        C  0.17553083  0.14875619  0.66466353    -0.25400
H613        H  0.06287835  0.21526756  0.62555070     0.08500
H614        H  0.13070855  0.18540480  0.61791972     0.12100
H615        H  0.06753198  0.18927974  0.72855299     0.12000
H616        H  0.12584147  0.15442606  0.75086060     0.11800
H617        H  0.18908491  0.12001761  0.74403709     0.12300
H618        H  0.18900758  0.14680026  0.64059494     0.14300
C619        C  0.99080587  0.76256544  0.66909903    -0.05800
C620        C  0.01932326  0.75916492  0.69649914    -0.05700
C621        C  0.07360669  0.79601621  0.70030870    -0.23900
C622        C  0.10000603  0.83698681  0.67685536     0.18400
C623        C  0.07315391  0.83692504  0.64761570     0.15600
C624        C  0.01872337  0.79905926  0.64369259    -0.18900
C625        C  0.09987533  0.87769632  0.62404183    -0.20700
C626        C  0.15077385  0.92082984  0.63062087    -0.13300
C627        C  0.17542751  0.92385658  0.66091316     0.03400
C628        C  0.15110028  0.88042927  0.68329355    -0.25400
H629        H  0.99879332  0.73034378  0.71607130     0.08500
H630        H  0.09388612  0.79474268  0.72253344     0.12100
H631        H  0.99715032  0.80171435  0.62238102     0.12000
H632        H  0.08026185  0.87797880  0.60134209     0.11800
H633        H  0.16918849  0.95376940  0.61283221     0.12300
H634        H  0.17040859  0.88216845  0.70645390     0.14300
C635        C  0.47411593  0.32154869  0.67147804    -0.05800
C636        C  0.50538692  0.34309575  0.69943305    -0.05700
C637        C  0.53632618  0.39981387  0.70254424    -0.23900
C638        C  0.53699498  0.43499076  0.67736893     0.18400
C639        C  0.50197558  0.41345855  0.65056092     0.15600
C640        C  0.46961202  0.35708514  0.64837967    -0.18900
C641        C  0.50429667  0.44780500  0.62453091    -0.20700
C642        C  0.54616213  0.50132924  0.62293328    -0.13300
C643        C  0.58375710  0.52141314  0.64820725     0.03400
C644        C  0.57636812  0.48994913  0.67659383    -0.25400
H645        H  0.50814428  0.31624127  0.71793672     0.08500
H646        H  0.56261773  0.41584389  0.72339140     0.12100
H647        H  0.44399534  0.34075639  0.62725963     0.12000
H648        H  0.47733132  0.43176055  0.60396916     0.11800
H649        H  0.55174201  0.52551149  0.60096423     0.12300
H650        H  0.60606583  0.50553484  0.69589643     0.14300
C651        C  0.29545894  0.04317082  0.55817445    -0.05800
C652        C  0.31815229  0.00829916  0.55535372    -0.05700
C653        C  0.30038342  0.96850797  0.53148094    -0.23900
C654        C  0.26069710  0.96397174  0.50918455     0.18400
C655        C  0.23705902  0.99846742  0.51182191     0.15600
C656        C  0.25365548  0.03705913  0.53691047    -0.18900
C657        C  0.19896699  0.99514349  0.48850865    -0.20700
C658        C  0.18671081  0.96028196  0.46199937    -0.13300
C659        C  0.21089238  0.92665839  0.45885580     0.03400
C660        C  0.24644820  0.92746359  0.48333317    -0.25400
H661        H  0.34961287  0.01166981  0.57189936     0.08500
H662        H  0.31886306  0.94234818  0.52986957     0.12100
H663        H  0.23580868  0.06371486  0.53907196     0.12000
H664        H  0.18036510  0.02119632  0.49001361     0.11800
H665        H  0.15939264  0.96070317  0.44348660     0.12300
H666        H  0.26604620  0.90241439  0.48110958     0.14300
loop_ 
_geom_bond_atom_site_label_1 
_geom_bond_atom_site_label_2 
_geom_bond_distance 
_geom_bond_site_symmetry_2 
_ccdc_geom_bond_type 
O1           Ni7   1.934       .  S
O1           C22   1.274       .  A
O2          Ni25   1.905       .  S
O2           C11   1.266       .  A
O3           Ni7   1.913       .  S
O3          Ni25   1.917       .  S
O3          Ni19   1.922       .  S
O3           H26   0.966       .  S
C4           O21   1.283       .  A
C4           O13   1.283       .  A
C4          C635   1.467       .  S
O5          Ni24   1.946       .  S
O5           C11   1.277       .  A
O6          Ni24   1.914       .  S
O6            C8   1.270       .  A
Ni7          O10   1.937   1_545  S
Ni7          O12   1.925       .  S
C8           O18   1.281       .  A
C8          C595   1.513       .  S
O9          Ni25   1.880       .  S
O9           C15   1.264   1_545  A
O10          C15   1.278       .  A
C11         C651   1.480       .  S
O12          C14   1.275       .  A
O13         Ni24   1.911       .  S
C14          O20   1.282       .  A
C14         C611   1.523       .  S
C15         C627   1.469       .  S
H16          O17   0.966       .  S
O17         Ni25   1.876       .  S
O17         Ni19   1.900       .  S
O17         Ni24   1.884       .  S
O18         Ni19   1.970       .  S
Ni19         O23   1.925       .  S
Ni19         O21   1.922       .  S
O20         Ni25   1.977       .  S
C22          O23   1.274       .  A
C22         C571   1.494       .  S
O27         Ni33   1.938   1_565  S
O27          C48   1.274       .  A
O28         Ni51   1.932       .  S
O28          C37   1.277       .  A
O29         Ni33   1.905       .  S
O29         Ni51   1.915   1_554  S
O29         Ni45   1.924   1_545  S
O29          H52   0.966       .  S
C30          O47   1.287   1_556  A
C30          O39   1.281       .  A
C30         C563   1.471   1_556  S
O31         Ni50   1.931       .  S
O31          C37   1.277   1_565  A
O32         Ni50   1.927       .  S
O32          C34   1.271       .  A
Ni33         O36   1.923       .  S
Ni33         O38   1.931       .  S
C34          O44   1.282   1_556  A
C34         C507   1.520       .  S
O35         Ni51   1.912       .  S
O35          C41   1.276   1_556  A
O36          C41   1.277       .  A
C37         C579   1.489       .  S
O38          C40   1.279       .  A
O39         Ni50   1.905       .  S
C40          O46   1.285       .  A
C40         C523   1.524       .  S
C41         C547   1.468       .  S
H42          O43   0.966       .  S
O43         Ni51   1.905   1_565  S
O43         Ni45   1.896   1_556  S
O43         Ni50   1.877       .  S
O44         Ni45   1.963       .  S
Ni45         O49   1.925       .  S
Ni45         O47   1.938       .  S
O46         Ni51   1.980   1_554  S
C48          O49   1.272       .  A
C48         C499   1.489       .  S
O53         Ni59   1.928       .  S
O53          C74   1.271       .  A
O54         Ni77   1.934       .  S
O54          C63   1.280       .  A
O55         Ni59   1.908       .  S
O55         Ni77   1.922       .  S
O55         Ni71   1.932       .  S
O55          H78   0.966       .  S
C56          O73   1.286       .  A
C56          O65   1.281       .  A
C56         C443   1.483       .  S
O57         Ni76   1.934       .  S
O57          C63   1.279       .  A
O58         Ni76   1.929       .  S
O58          C60   1.272       .  A
Ni59         O62   1.922       .  S
Ni59         O64   1.910       .  S
C60          O70   1.276       .  A
C60         C459   1.510   1_565  S
O61         Ni77   1.928       .  S
O61          C67   1.278       .  A
O62          C67   1.274       .  A
C63         C491   1.495       .  S
O64          C66   1.274       .  A
O65         Ni76   1.913       .  S
C66          O72   1.285       .  A
C66         C475   1.505       .  S
C67         C435   1.482       .  S
H68          O69   0.966       .  S
O69         Ni77   1.914       .  S
O69         Ni71   1.896       .  S
O69         Ni76   1.888       .  S
O70         Ni71   1.941       .  S
Ni71         O75   1.920       .  S
Ni71         O73   1.941       .  S
O72         Ni77   1.974       .  S
C74          O75   1.270       .  A
C74         C659   1.490       .  S
O79         Ni85   1.931       .  S
O79         C100   1.272       .  A
O80        Ni103   1.918       .  S
O80          C89   1.267       .  A
O81         Ni85   1.913       .  S
O81        Ni103   1.910       .  S
O81         Ni97   1.913       .  S
O81         H104   0.967       .  S
C82          O99   1.279       .  A
C82          O91   1.275       .  A
C82         C619   1.472       .  S
O83        Ni102   1.926       .  S
O83          C89   1.270       .  A
O84        Ni102   1.909       .  S
O84          C86   1.269       .  A
Ni85         O88   1.933       .  S
Ni85         O90   1.913       .  S
C86          O96   1.264       .  A
C86         C379   1.472       .  S
O87        Ni103   1.883       .  S
O87          C93   1.262       .  A
O88          C93   1.275       .  A
C89         C363   1.483       .  S
O90          C92   1.273       .  A
O91        Ni102   1.906       .  S
C92          O98   1.277       .  A
C92         C395   1.485       .  S
C93         C643   1.453       .  S
H94          O95   0.965       .  S
O95        Ni103   1.896       .  S
O95         Ni97   1.909       .  S
O95        Ni102   1.902       .  S
O96         Ni97   1.897       .  S
Ni97        O101   1.915       .  S
Ni97         O99   1.923       .  S
O98        Ni103   1.944       .  S
C100        O101   1.270       .  A
C100        C411   1.474       .  S
O105       Ni111   1.927       .  S
O105        C126   1.272       .  A
O106       Ni129   1.891       .  S
O106        C115   1.261       .  A
O107       Ni111   1.912       .  S
O107       Ni129   1.910   1_554  S
O107       Ni123   1.904       .  S
O107        H130   0.966       .  S
C108        O125   1.267       .  A
C108        O117   1.275   1_554  A
C108        C355   1.468       .  S
O109       Ni128   1.950       .  S
O109        C115   1.273       .  A
O110       Ni128   1.905       .  S
O110        C112   1.272       .  A
Ni111       O114   1.928       .  S
Ni111       O116   1.914       .  S
C112        O122   1.271   1_556  A
C112        C555   1.473       .  S
O113       Ni129   1.893       .  S
O113        C119   1.263       .  A
O114        C119   1.276   1_554  A
C115        C371   1.485       .  S
O116        C118   1.271       .  A
O117       Ni128   1.925       .  S
C118        O124   1.271   1_554  A
C118        C539   1.473       .  S
C119        C331   1.459       .  S
H120        O121   0.965       .  S
O121       Ni129   1.910       .  S
O121       Ni123   1.930   1_556  S
O121       Ni128   1.923       .  S
O122       Ni123   1.912       .  S
Ni123       O127   1.921       .  S
Ni123       O125   1.897       .  S
O124       Ni129   1.935       .  S
C126        O127   1.271       .  A
C126        C315   1.492       .  S
O131       Ni137   1.940       .  S
O131        C152   1.274       .  A
O132       Ni155   1.920       .  S
O132        C141   1.269       .  A
O133       Ni137   1.905       .  S
O133       Ni155   1.908       .  S
O133       Ni149   1.897       .  S
O133        H156   0.965       .  S
C134        O151   1.279       .  A
C134        O143   1.279       .  A
C134        C307   1.469       .  S
O135       Ni154   1.936       .  S
O135        C141   1.274       .  A
O136       Ni154   1.915       .  S
O136        C138   1.270       .  A
Ni137       O140   1.934       .  S
Ni137       O142   1.920       .  S
C138        O148   1.268       .  A
C138        C451   1.481       .  S
O139       Ni155   1.879       .  S
O139        C145   1.266       .  A
O140        C145   1.278       .  A
C141        C323   1.477       .  S
O142        C144   1.273       .  A
O143       Ni154   1.913       .  S
C144        O150   1.277       .  A
C144        C427   1.491       .  S
C145        C283   1.451       .  S
H146        O147   0.965       .  S
O147       Ni155   1.886       .  S
O147       Ni149   1.895       .  S
O147       Ni154   1.889       .  S
O148       Ni149   1.914       .  S
Ni149       O153   1.909       .  S
Ni149       O151   1.910       .  S
O150       Ni155   1.947       .  S
C152        O153   1.268       .  A
C152        C419   1.478       .  S
O157       Ni163   1.929       .  S
O157        C178   1.273       .  A
O158       Ni181   1.918       .  S
O158        C167   1.274       .  A
O159       Ni163   1.917       .  S
O159       Ni181   1.906       .  S
O159       Ni175   1.927       .  S
O159        H182   0.966       .  S
C160        O177   1.284       .  A
C160        O169   1.282       .  A
C160        C387   1.471       .  S
O161       Ni180   1.940       .  S
O161        C167   1.280       .  A
O162       Ni180   1.930       .  S
O162        C164   1.272   1_655  A
Ni163       O166   1.922       .  S
Ni163       O168   1.939       .  S
C164        O174   1.280   1_455  A
C164        C603   1.520       .  S
O165       Ni181   1.924       .  S
O165        C171   1.281       .  A
O166        C171   1.278       .  A
C167        C251   1.483       .  S
O168        C170   1.278       .  A
O169       Ni180   1.917       .  S
C170        O176   1.279       .  A
C170        C587   1.516       .  S
C171        C403   1.479       .  S
H172        O173   0.966       .  S
O173       Ni181   1.909       .  S
O173       Ni175   1.889       .  S
O173       Ni180   1.890       .  S
O174       Ni175   1.952       .  S
Ni175       O179   1.912       .  S
Ni175       O177   1.919       .  S
O176       Ni181   1.954       .  S
C178        O179   1.268       .  A
C178        C275   1.486       .  S
O183       Ni189   1.909       .  S
O183        C204   1.267   1_455  A
O184       Ni207   1.911       .  S
O184        C193   1.272       .  A
O185       Ni189   1.894       .  S
O185       Ni207   1.908   1_556  S
O185       Ni201   1.921   1_455  S
O185        H208   0.966       .  S
C186        O203   1.281       .  A
C186        O195   1.283   1_556  A
C186        C339   1.465       .  S
O187       Ni206   1.936       .  S
O187        C193   1.279   1_655  A
O188       Ni206   1.929       .  S
O188        C190   1.272       .  A
Ni189       O192   1.912       .  S
Ni189       O194   1.919       .  S
C190        O200   1.282   1_554  A
C190        C531   1.518       .  S
O191       Ni207   1.921       .  S
O191        C197   1.277   1_554  A
O192        C197   1.277       .  A
C193        C243   1.481       .  S
O194        C196   1.272       .  A
O195       Ni206   1.916       .  S
C196        O202   1.282   1_556  A
C196        C515   1.523       .  S
C197        C347   1.469   1_556  S
H198        O199   0.966   1_455  S
O199       Ni207   1.895   1_655  S
O199       Ni201   1.902   1_554  S
O199       Ni206   1.882       .  S
O200       Ni201   1.968       .  S
Ni201       O205   1.936       .  S
Ni201       O203   1.916       .  S
O202       Ni207   1.978       .  S
C204        O205   1.272       .  A
C204        C259   1.490       .  S
O209       Ni215   1.917       .  S
O209        C230   1.268       .  A
O210       Ni233   1.912       .  S
O210        C219   1.272       .  A
O211       Ni215   1.905       .  S
O211       Ni233   1.914       .  S
O211       Ni227   1.912       .  S
O211        H234   0.966       .  S
C212        O229   1.278       .  A
C212        O221   1.279       .  A
C212        C291   1.465       .  S
O213       Ni232   1.937       .  S
O213        C219   1.277       .  A
O214       Ni232   1.930       .  S
O214        C216   1.273       .  A
Ni215       O218   1.912   1_455  S
Ni215       O220   1.913       .  S
C216        O226   1.272       .  A
C216        C483   1.504       .  S
O217       Ni233   1.900   1_655  S
O217        C223   1.269       .  A
O218        C223   1.275       .  A
C219        C267   1.482       .  S
O220        C222   1.272       .  A
O221       Ni232   1.904       .  S
C222        O228   1.283       .  A
C222        C467   1.512       .  S
C223        C299   1.468       .  S
H224        O225   0.966       .  S
O225       Ni233   1.892       .  S
O225       Ni227   1.902       .  S
O225       Ni232   1.893       .  S
O226       Ni227   1.932       .  S
Ni227       O231   1.917       .  S
Ni227       O229   1.912       .  S
O228       Ni233   1.973       .  S
C230        O231   1.266       .  A
C230        C235   1.480       .  S
C235        C236   1.405       .  A
C235        C240   1.404       .  A
C236        C237   1.405       .  A
C236        H245   1.083       .  S
C237        C238   1.407       .  A
C237        H246   1.083       .  S
C238        C244   1.411       .  A
C238        C239   1.414       .  A
C239        C241   1.399       .  A
C239        C240   1.400       .  A
C240        H247   1.085       .  S
C241        C242   1.393       .  A
C241        H248   1.084   1_455  S
C242        C243   1.405       .  A
C242        H249   1.083   1_455  S
C243        C244   1.410       .  A
C244        H250   1.084       .  S
C251        C252   1.406       .  A
C251        C256   1.403       .  A
C252        C253   1.404       .  A
C252        H261   1.083       .  S
C253        C254   1.405       .  A
C253        H262   1.083       .  S
C254        C260   1.414       .  A
C254        C255   1.415       .  A
C255        C257   1.398   1_655  A
C255        C256   1.405       .  A
C256        H263   1.084   1_655  S
C257        C258   1.394       .  A
C257        H264   1.084       .  S
C258        C259   1.409   1_455  A
C258        H265   1.083       .  S
C259        C260   1.411       .  A
C260        H266   1.084       .  S
C267        C268   1.404       .  A
C267        C272   1.409       .  A
C268        C269   1.399       .  A
C268        H277   1.083       .  S
C269        C270   1.403       .  A
C269        H278   1.084       .  S
C270        C276   1.408   1_455  A
C270        C271   1.414   1_455  A
C271        C273   1.406       .  A
C271        C272   1.412   1_655  A
C272        H279   1.084   1_455  S
C273        C274   1.404       .  A
C273        H280   1.083       .  S
C274        C275   1.405       .  A
C274        H281   1.083       .  S
C275        C276   1.409       .  A
C276        H282   1.085   1_655  S
C283        C284   1.399       .  A
C283        C288   1.402       .  A
C284        C285   1.390       .  A
C284        H293   1.083       .  S
C285        C286   1.401       .  A
C285        H294   1.084       .  S
C286        C292   1.388       .  A
C286        C287   1.413       .  A
C287        C289   1.402       .  A
C287        C288   1.393       .  A
C288        H295   1.085       .  S
C289        C290   1.395       .  A
C289        H296   1.084       .  S
C290        C291   1.404       .  A
C290        H297   1.083       .  S
C291        C292   1.403       .  A
C292        H298   1.085       .  S
C299        C300   1.405       .  A
C299        C304   1.402       .  A
C300        C301   1.396       .  A
C300        H309   1.083       .  S
C301        C302   1.403       .  A
C301        H310   1.084       .  S
C302        C308   1.397   1_545  A
C302        C303   1.413       .  A
C303        C305   1.398       .  A
C303        C304   1.391       .  A
C304        H311   1.085       .  S
C305        C306   1.389   1_545  A
C305        H312   1.084       .  S
C306        C307   1.405       .  A
C306        H313   1.083       .  S
C307        C308   1.406       .  A
C308        H314   1.084       .  S
C315        C316   1.408       .  A
C315        C320   1.409       .  A
C316        C317   1.406       .  A
C316        H325   1.083       .  S
C317        C318   1.407       .  A
C317        H326   1.083       .  S
C318        C324   1.414       .  A
C318        C319   1.414       .  A
C319        C321   1.401       .  A
C319        C320   1.404       .  A
C320        H327   1.084       .  S
C321        C322   1.395       .  A
C321        H328   1.084       .  S
C322        C323   1.402       .  A
C322        H329   1.084       .  S
C323        C324   1.409       .  A
C324        H330   1.084       .  S
C331        C332   1.403       .  A
C331        C336   1.397       .  A
C332        C333   1.397       .  A
C332        H341   1.083       .  S
C333        C334   1.402       .  A
C333        H342   1.084       .  S
C334        C340   1.402       .  A
C334        C335   1.417       .  A
C335        C337   1.396   1_556  A
C335        C336   1.393       .  A
C336        H343   1.086   1_556  S
C337        C338   1.387       .  A
C337        H344   1.084       .  S
C338        C339   1.405   1_554  A
C338        H345   1.084       .  S
C339        C340   1.402       .  A
C340        H346   1.084       .  S
C347        C348   1.404   1_554  A
C347        C352   1.404       .  A
C348        C349   1.392       .  A
C348        H357   1.083       .  S
C349        C350   1.398   1_556  A
C349        H358   1.084       .  S
C350        C356   1.398       .  A
C350        C351   1.416       .  A
C351        C353   1.402       .  A
C351        C352   1.403       .  A
C352        H359   1.085       .  S
C353        C354   1.397       .  A
C353        H360   1.084       .  S
C354        C355   1.405       .  A
C354        H361   1.084       .  S
C355        C356   1.400       .  A
C356        H362   1.085   1_554  S
C363        C364   1.405       .  A
C363        C368   1.411       .  A
C364        C365   1.393       .  A
C364        H373   1.083       .  S
C365        C366   1.399       .  A
C365        H374   1.084       .  S
C366        C372   1.401       .  A
C366        C367   1.414       .  A
C367        C369   1.408       .  A
C367        C368   1.414       .  A
C368        H375   1.084       .  S
C369        C370   1.407       .  A
C369        H376   1.083       .  S
C370        C371   1.406       .  A
C370        H377   1.083       .  S
C371        C372   1.405       .  A
C372        H378   1.084       .  S
C379        C380   1.408       .  A
C379        C384   1.404       .  A
C380        C381   1.390       .  A
C380        H389   1.083       .  S
C381        C382   1.398       .  A
C381        H390   1.084       .  S
C382        C388   1.395   1_565  A
C382        C383   1.414       .  A
C383        C385   1.400       .  A
C383        C384   1.399       .  A
C384        H391   1.084       .  S
C385        C386   1.395   1_565  A
C385        H392   1.084       .  S
C386        C387   1.406       .  A
C386        H393   1.083       .  S
C387        C388   1.403       .  A
C388        H394   1.084       .  S
C395        C396   1.408       .  A
C395        C400   1.407       .  A
C396        C397   1.397       .  A
C396        H405   1.083       .  S
C397        C398   1.401       .  A
C397        H406   1.084       .  S
C398        C404   1.406       .  A
C398        C399   1.415       .  A
C399        C401   1.401       .  A
C399        C400   1.406       .  A
C400        H407   1.084       .  S
C401        C402   1.397       .  A
C401        H408   1.084       .  S
C402        C403   1.407       .  A
C402        H409   1.083       .  S
C403        C404   1.405       .  A
C404        H410   1.084       .  S
C411        C412   1.403       .  A
C411        C416   1.405       .  A
C412        C413   1.402       .  A
C412        H421   1.083       .  S
C413        C414   1.406       .  A
C413        H422   1.084       .  S
C414        C420   1.408       .  A
C414        C415   1.414       .  A
C415        C417   1.404       .  A
C415        C416   1.406       .  A
C416        H423   1.085       .  S
C417        C418   1.399       .  A
C417        H424   1.084       .  S
C418        C419   1.403       .  A
C418        H425   1.083       .  S
C419        C420   1.408       .  A
C420        H426   1.085       .  S
C427        C428   1.409       .  A
C427        C432   1.409       .  A
C428        C429   1.400       .  A
C428        H437   1.083       .  S
C429        C430   1.402       .  A
C429        H438   1.084       .  S
C430        C436   1.411       .  A
C430        C431   1.415       .  A
C431        C433   1.402       .  A
C431        C432   1.409       .  A
C432        H439   1.084       .  S
C433        C434   1.398       .  A
C433        H440   1.084       .  S
C434        C435   1.406       .  A
C434        H441   1.083       .  S
C435        C436   1.407       .  A
C436        H442   1.084       .  S
C443        C444   1.406       .  A
C443        C448   1.408       .  A
C444        C445   1.402   1_455  A
C444        H453   1.083       .  S
C445        C446   1.405       .  A
C445        H454   1.084       .  S
C446        C452   1.405       .  A
C446        C447   1.411       .  A
C447        C449   1.401       .  A
C447        C448   1.398   1_655  A
C448        H455   1.084       .  S
C449        C450   1.394       .  A
C449        H456   1.084       .  S
C450        C451   1.405       .  A
C450        H457   1.083       .  S
C451        C452   1.411       .  A
C452        H458   1.084       .  S
C459        C460   1.411       .  A
C459        C464   1.413       .  A
C460        C461   1.411       .  A
C460        H469   1.083       .  S
C461        C462   1.408       .  A
C461        H470   1.083       .  S
C462        C468   1.426       .  A
C462        C463   1.413       .  A
C463        C465   1.400       .  A
C463        C464   1.415       .  A
C464        H471   1.084       .  S
C465        C466   1.399       .  A
C465        H472   1.084       .  S
C466        C467   1.412       .  A
C466        H473   1.083       .  S
C467        C468   1.418       .  A
C468        H474   1.083       .  S
C475        C476   1.411       .  A
C475        C480   1.415       .  A
C476        C477   1.396       .  A
C476        H485   1.083       .  S
C477        C478   1.398       .  A
C477        H486   1.084       .  S
C478        C484   1.412       .  A
C478        C479   1.415       .  A
C479        C481   1.406       .  A
C479        C480   1.423       .  A
C480        H487   1.084       .  S
C481        C482   1.408       .  A
C481        H488   1.083       .  S
C482        C483   1.412       .  A
C482        H489   1.083       .  S
C483        C484   1.409       .  A
C484        H490   1.084       .  S
C491        C492   1.407       .  A
C491        C496   1.413       .  A
C492        C493   1.399       .  A
C492        H501   1.083       .  S
C493        C494   1.402       .  A
C493        H502   1.084       .  S
C494        C500   1.412       .  A
C494        C495   1.415       .  A
C495        C497   1.408       .  A
C495        C496   1.420       .  A
C496        H503   1.084       .  S
C497        C498   1.408       .  A
C497        H504   1.083       .  S
C498        C499   1.405       .  A
C498        H505   1.083       .  S
C499        C500   1.408       .  A
C500        H506   1.085       .  S
C507        C508   1.411   1_556  A
C507        C512   1.417       .  A
C508        C509   1.418       .  A
C508        H517   1.083       .  S
C509        C510   1.412       .  A
C509        H518   1.083       .  S
C510        C516   1.434       .  A
C510        C511   1.412   1_554  A
C511        C513   1.400       .  A
C511        C512   1.417       .  A
C512        H519   1.084       .  S
C513        C514   1.399       .  A
C513        H520   1.084       .  S
C514        C515   1.413       .  A
C514        H521   1.083       .  S
C515        C516   1.424   1_556  A
C516        H522   1.083       .  S
C523        C524   1.412       .  A
C523        C528   1.423   1_554  A
C524        C525   1.405       .  A
C524        H533   1.083       .  S
C525        C526   1.403       .  A
C525        H534   1.083       .  S
C526        C532   1.423       .  A
C526        C527   1.413   1_554  A
C527        C529   1.410       .  A
C527        C528   1.431       .  A
C528        H535   1.083       .  S
C529        C530   1.414       .  A
C529        H536   1.083       .  S
C530        C531   1.411   1_556  A
C530        H537   1.083       .  S
C531        C532   1.417       .  A
C532        H538   1.084       .  S
C539        C540   1.406   1_554  A
C539        C544   1.403       .  A
C540        C541   1.397       .  A
C540        H549   1.083       .  S
C541        C542   1.402       .  A
C541        H550   1.084       .  S
C542        C548   1.404       .  A
C542        C543   1.415   1_556  A
C543        C545   1.401       .  A
C543        C544   1.401       .  A
C544        H551   1.084       .  S
C545        C546   1.395       .  A
C545        H552   1.084       .  S
C546        C547   1.404       .  A
C546        H553   1.083       .  S
C547        C548   1.404   1_554  A
C548        H554   1.085       .  S
C555        C556   1.404       .  A
C555        C560   1.409   1_556  A
C556        C557   1.391       .  A
C556        H565   1.083       .  S
C557        C558   1.400       .  A
C557        H566   1.084       .  S
C558        C564   1.392       .  A
C558        C559   1.411   1_556  A
C559        C561   1.405       .  A
C559        C560   1.399       .  A
C560        H567   1.084       .  S
C561        C562   1.399       .  A
C561        H568   1.084       .  S
C562        C563   1.404       .  A
C562        H569   1.083       .  S
C563        C564   1.405   1_554  A
C564        H570   1.084       .  S
C571        C572   1.408       .  A
C571        C576   1.408       .  A
C572        C573   1.408       .  A
C572        H581   1.083       .  S
C573        C574   1.408       .  A
C573        H582   1.083       .  S
C574        C580   1.419       .  A
C574        C575   1.414       .  A
C575        C577   1.400       .  A
C575        C576   1.406       .  A
C576        H583   1.084       .  S
C577        C578   1.394       .  A
C577        H584   1.084       .  S
C578        C579   1.406       .  A
C578        H585   1.084   1_545  S
C579        C580   1.412       .  A
C580        H586   1.084       .  S
C587        C588   1.412       .  A
C587        C592   1.416       .  A
C588        C589   1.410       .  A
C588        H597   1.083       .  S
C589        C590   1.407       .  A
C589        H598   1.083       .  S
C590        C596   1.427       .  A
C590        C591   1.414       .  A
C591        C593   1.403       .  A
C591        C592   1.421       .  A
C592        H599   1.084       .  S
C593        C594   1.403       .  A
C593        H600   1.083       .  S
C594        C595   1.411       .  A
C594        H601   1.083       .  S
C595        C596   1.418       .  A
C596        H602   1.084       .  S
C603        C604   1.412       .  A
C603        C608   1.417       .  A
C604        C605   1.416       .  A
C604        H613   1.083       .  S
C605        C606   1.411       .  A
C605        H614   1.083       .  S
C606        C612   1.432       .  A
C606        C607   1.412       .  A
C607        C609   1.402       .  A
C607        C608   1.419       .  A
C608        H615   1.084       .  S
C609        C610   1.401       .  A
C609        H616   1.084       .  S
C610        C611   1.412       .  A
C610        H617   1.083       .  S
C611        C612   1.424       .  A
C612        H618   1.083       .  S
C619        C620   1.407   1_655  A
C619        C624   1.402   1_655  A
C620        C621   1.391       .  A
C620        H629   1.083   1_455  S
C621        C622   1.397       .  A
C621        H630   1.084       .  S
C622        C628   1.399       .  A
C622        C623   1.416       .  A
C623        C625   1.399       .  A
C623        C624   1.401       .  A
C624        H631   1.084   1_455  S
C625        C626   1.394       .  A
C625        H632   1.084       .  S
C626        C627   1.407       .  A
C626        H633   1.084       .  S
C627        C628   1.400       .  A
C628        H634   1.085       .  S
C635        C636   1.403       .  A
C635        C640   1.404       .  A
C636        C637   1.397       .  A
C636        H645   1.083       .  S
C637        C638   1.404       .  A
C637        H646   1.084       .  S
C638        C644   1.395       .  A
C638        C639   1.413       .  A
C639        C641   1.401       .  A
C639        C640   1.390       .  A
C640        H647   1.085       .  S
C641        C642   1.391       .  A
C641        H648   1.084       .  S
C642        C643   1.400       .  A
C642        H649   1.083       .  S
C643        C644   1.402       .  A
C644        H650   1.085       .  S
C651        C652   1.403       .  A
C651        C656   1.409       .  A
C652        C653   1.396   1_545  A
C652        H661   1.084       .  S
C653        C654   1.402       .  A
C653        H662   1.084       .  S
C654        C660   1.406       .  A
C654        C655   1.414       .  A
C655        C657   1.406       .  A
C655        C656   1.414   1_565  A
C656        H663   1.084       .  S
C657        C658   1.405       .  A
C657        H664   1.083   1_565  S
C658        C659   1.407       .  A
C658        H665   1.083       .  S
C659        C660   1.408       .  A
C660        H666   1.084       .  S
