geometry optimzed in LAMMPS
_audit_creation_date              2020-12-01 
_audit_creation_method            'lammps2cif' 
_symmetry_space_group_name_H-M    'P1' 
_symmetry_Int_Tables_number       1 
_symmetry_cell_setting            triclinic 
loop_ 
_symmetry_equiv_pos_as_xyz 
  x,y,z 
_cell_length_a                    54.90768077 
_cell_length_b                    54.979417074531156 
_cell_length_c                    38.875532408730805 
_cell_angle_alpha                 90.35747769101539 
_cell_angle_beta                  89.61413895534179 
_cell_angle_gamma                 120.4121160942431 
loop_ 
_atom_site_label 
_atom_site_type_symbol 
_atom_site_fract_x 
_atom_site_fract_y 
_atom_site_fract_z 
_atom_site_charge 
Fe1        Fe  0.33132041  0.27366469  0.29135660     1.65800
Fe2        Fe  0.32967267  0.24317382  0.36586699     1.73200
Fe3        Fe  0.27713145  0.25346350  0.34599718     1.54400
O4          O  0.28631029  0.29098523  0.32084054    -0.81900
O5          O  0.29642141  0.20314576  0.36206285    -0.80200
O6          O  0.33059192  0.31001833  0.30182855    -0.84400
O7          O  0.29208864  0.25645142  0.26493514    -0.79200
O8          O  0.29686840  0.27709569  0.38800855    -0.81000
O9          O  0.35174409  0.23464996  0.32632977    -0.83800
C10         C  0.26599500  0.23944920  0.27265409     0.97000
C11         C  0.30851979  0.31134246  0.30743277     1.04400
O12         O  0.31203452  0.25577258  0.33334248    -1.12700
O13         O  0.36163377  0.28356857  0.36989203    -0.75200
O14         O  0.37225340  0.29119850  0.31463967    -0.78700
O15         O  0.25763250  0.23119822  0.30309518    -0.79400
C16         C  0.37992310  0.29307870  0.34620741     0.95900
O17         O  0.33335714  0.23878087  0.27780507    -0.77300
O18         O  0.30973329  0.24888934  0.40992318    -0.82500
C19         C  0.27274242  0.19743424  0.37474404     0.98500
C20         C  0.29718217  0.26297690  0.41299671     1.04400
O21         O  0.26351603  0.21471830  0.37297836    -0.78200
C22         C  0.34943220  0.23231208  0.29348101     1.02700
Fe23       Fe  0.14942815  0.19880432  0.04229271     1.65800
Fe24       Fe  0.15064413  0.22734544  0.11802016     1.73200
Fe25       Fe  0.20371563  0.21845497  0.09557970     1.54400
O26         O  0.19389582  0.18065563  0.06980748    -0.81900
O27         O  0.18289716  0.26731791  0.11326379    -0.80200
O28         O  0.14971784  0.16251783  0.05089909    -0.84400
O29         O  0.18823600  0.21566947  0.01491360    -0.79200
O30         O  0.18511254  0.19464082  0.13773276    -0.81000
O31         O  0.12742907  0.23544801  0.08002295    -0.83800
C32         C  0.21437142  0.23237969  0.02227350     0.97000
C33         C  0.17133616  0.16061331  0.05648388     1.04400
O34         O  0.16852355  0.21558231  0.08443689    -1.12700
O35         O  0.11954860  0.18673123  0.12197629    -0.75200
O36         O  0.10902973  0.18058746  0.06657155    -0.78700
O37         O  0.22260448  0.24097583  0.05260258    -0.79400
C38         C  0.10141582  0.17711752  0.09835229     0.95900
O39         O  0.14792244  0.23427477  0.03152947    -0.77300
O40         O  0.17162917  0.22209822  0.16092941    -0.82500
C41         C  0.20705238  0.27407078  0.12474665     0.98500
C42         C  0.18415940  0.20794921  0.16343377     1.04400
O43         O  0.21701955  0.25732498  0.12292962    -0.78200
C44         C  0.13062091  0.23916383  0.04738752     1.02700
Fe45       Fe  0.20198623  0.04136548  0.45510100     1.65800
Fe46       Fe  0.22935047  0.06754972  0.03159321     1.73200
Fe47       Fe  0.22686095  0.00927541  0.00344306     1.54400
O48         O  0.18806169  0.47939587  0.47546190    -0.81900
O49         O  0.27052844  0.07889322  0.02773896    -0.80200
O50         O  0.16462040  0.50196314  0.46524515    -0.84400
O51         O  0.22009393  0.02208508  0.42533919    -0.79200
O52         O  0.20065900  0.49782698  0.04569245    -0.81000
O53         O  0.23668338  0.09974125  0.49470462    -0.83800
C54         C  0.23982981  0.01663446  0.43078508     0.97000
C55         C  0.16574597  0.47956957  0.46620116     1.04400
O56         O  0.21969847  0.03944169  0.99646390    -1.12700
O57         O  0.18797137  0.05568944  0.03534294    -0.75200
O58         O  0.18230355  0.06143295  0.48043948    -0.78700
O59         O  0.25069295  0.01939399  0.46014989    -0.79400
C60         C  0.17848491  0.06470834  0.01232693     0.95900
O61         O  0.23646997  0.07934174  0.44543284    -0.77300
O62         O  0.22427465  0.03912567  0.07234518    -0.82500
C63         C  0.27856085  0.06254740  0.03888759     0.98500
C64         C  0.21307251  0.01223645  0.07294363     1.04400
O65         O  0.26438325  0.03579918  0.03297312    -0.78200
C66         C  0.24035366  0.10089352  0.46190705     1.02700
Fe67       Fe  0.27433550  0.42984197  0.20506592     1.65800
Fe68       Fe  0.24252883  0.40280549  0.27963258     1.73200
Fe69       Fe  0.25175672  0.46425009  0.25395142     1.54400
O70         O  0.29172930  0.99280383  0.22885011    -0.81900
O71         O  0.20270349  0.39535541  0.27241633    -0.80200
O72         O  0.31019706  0.46722174  0.21549094    -0.84400
O73         O  0.25793298  0.45079921  0.17521048    -0.79200
O74         O  0.27505655  0.47208796  0.29696299    -0.81000
O75         O  0.23516535  0.37107427  0.24237438    -0.83800
C76         C  0.23928306  0.45799938  0.18068931     0.97000
C77         C  0.31080023  0.49049081  0.21740260     1.04400
O78         O  0.25603460  0.43224994  0.24579771    -1.12700
O79         O  0.28240812  0.41045275  0.28650703    -0.75200
O80         O  0.29160321  0.40783906  0.23134643    -0.78700
O81         O  0.22920418  0.45709819  0.21032500    -0.79400
C82         C  0.29352460  0.40296952  0.26327383     0.95900
O83         O  0.23933805  0.39266979  0.19313942    -0.77300
O84         O  0.24798535  0.43083490  0.32117594    -0.82500
C85         C  0.19629925  0.41280239  0.28454485     0.98500
C86         C  0.26196922  0.45782676  0.32293300     1.04400
O87         O  0.21313805  0.43954195  0.28201502    -0.78200
C88         C  0.23362502  0.37059306  0.20947167     1.02700
Fe89       Fe  0.04566435  0.32267786  0.37199527     1.65800
Fe90       Fe  0.07390787  0.32604078  0.44888466     1.73200
Fe91       Fe  0.01137721  0.27103896  0.42917456     1.54400
O92         O  0.48271071  0.27964799  0.40344775    -0.81900
O93         O  0.08245952  0.29423354  0.44739097    -0.80200
O94         O  0.50836410  0.32173514  0.37849900    -0.84400
O95         O  0.02423629  0.28294391  0.34705623    -0.79200
O96         O  0.50725742  0.29168718  0.46997685    -0.81000
O97         O  0.10477653  0.34829495  0.40972777    -0.83800
C98         C  0.01401938  0.25715275  0.35604440     1.01200
C99         C  0.48482521  0.30092607  0.38738483     1.04400
O100        O  0.04371724  0.30593066  0.41585760    -1.12700
O101        O  0.06424199  0.35717819  0.44997973    -0.75200
O102        O  0.06730775  0.36416142  0.39342188    -0.78700
O103        O  0.01335165  0.24979916  0.38705069    -0.79400
C104        C  0.07175468  0.37365883  0.42443887     0.95900
O105        O  0.08304335  0.32438394  0.36312217    -0.77300
O106        O  0.04822213  0.30625470  0.49315979    -0.82500
C107        C  0.06504575  0.27019070  0.45969527     0.98500
C108        C  0.02136438  0.29260957  0.49554123     1.04400
O109        O  0.03803643  0.25943905  0.45714124    -0.78200
C110        C  0.10488001  0.34397679  0.37733435     1.02700
Fe111      Fe  0.43710086  0.14450269  0.12270525     1.65800
Fe112      Fe  0.40694147  0.14401163  0.19774389     1.73200
Fe113      Fe  0.46911032  0.19872799  0.17743111     1.54400
O114        O  0.99863646  0.19090859  0.15227826    -0.81900
O115        O  0.39841701  0.17568198  0.19443898    -0.80200
O116        O  0.47396860  0.14628040  0.13438257    -0.84400
O117        O  0.45933628  0.18376925  0.09663962    -0.79200
O118        O  0.47415044  0.17986558  0.21895745    -0.81000
O119        O  0.37688463  0.12203671  0.15802613    -0.83800
C120        C  0.46785309  0.20967412  0.10411736     0.97000
C121        C  0.99714732  0.16864859  0.13980387     1.04400
O122        O  0.43725425  0.16302662  0.16490175    -1.12700
O123        O  0.41585788  0.11239644  0.20100176    -0.75200
O124        O  0.41449893  0.10377102  0.14500832    -0.78700
O125        O  0.46613446  0.21766967  0.13426542    -0.79400
C126        C  0.40879099  0.09517579  0.17618972     0.95900
O127        O  0.39962977  0.14062433  0.10880148    -0.77300
O128        O  0.43264222  0.16436567  0.24199640    -0.82500
C129        C  0.41530489  0.19985360  0.20664419     0.98500
C130        C  0.45953185  0.17735148  0.24493832     1.04400
O131        O  0.44230642  0.21056912  0.20494871    -0.78200
C132        C  0.37716787  0.12435373  0.12516516     1.02700
C133        C  0.47456094  0.19411524  0.27632917    -0.00400
C134        C  0.45887760  0.19395816  0.30511231    -0.12200
C135        C  0.47174316  0.21355052  0.33198037     0.01900
C136        C  0.50065173  0.23452820  0.32986882    -0.00500
C137        C  0.51665875  0.23406388  0.30217386    -0.12200
C138        C  0.50427211  0.21380174  0.27605622     0.01800
H139        H  0.43634042  0.17913708  0.30618517     0.14700
H140        H  0.03901200  0.24965018  0.30095896     0.14700
C141        C  0.52292131  0.21458166  0.24909392     0.36400
C142        C  0.45455812  0.21238862  0.36088931     0.36300
N143        N  0.53796715  0.21526482  0.22762656    -0.44000
N144        N  0.44084693  0.21127444  0.38422756    -0.44000
C145        C  0.00645627  0.27259550  0.02439965    -0.00400
C146        C  0.01965647  0.27702386  0.05645685    -0.12200
C147        C  0.00732370  0.25695294  0.08282907     0.01900
C148        C  0.48134775  0.23160739  0.07724433    -0.00500
C149        C  0.46832974  0.22697498  0.04530241    -0.12200
C150        C  0.48029637  0.24704213  0.01912466     0.01800
H151        H  0.03990022  0.29596998  0.06074578     0.14700
H152        H  0.44857814  0.20749826  0.04078222     0.14700
C153        C  0.46544923  0.23972497  0.48674238     0.36400
C154        C  0.02255048  0.26230107  0.11474821     0.36300
N155        N  0.45324116  0.23349784  0.46102220    -0.44000
N156        N  0.03491914  0.26673020  0.14021764    -0.44000
C157        C  0.17110554  0.40080984  0.30712204    -0.00400
C158        C  0.17536439  0.40486606  0.34280708    -0.12200
C159        C  0.15463549  0.38667543  0.36643065     0.01900
C160        C  0.12875942  0.36382897  0.35437055    -0.00500
C161        C  0.12417698  0.36107728  0.31846843    -0.12200
C162        C  0.14489335  0.37915683  0.29511918     0.01800
H163        H  0.19572091  0.42114793  0.35228581     0.14700
H164        H  0.10427022  0.34454201  0.30822547     0.14700
C165        C  0.13888531  0.37489732  0.25875636     0.36400
C166        C  0.16116770  0.39153335  0.40260150     0.36300
N167        N  0.13385411  0.37154391  0.22966613    -0.44000
N168        N  0.16665664  0.39573432  0.43152692    -0.44000
C169        C  0.33854079  0.01607579  0.20580011    -0.00400
C170        C  0.36275086  0.02832793  0.22643413    -0.12200
C171        C  0.38735732  0.05289149  0.21580039     0.01900
C172        C  0.38809863  0.06520495  0.18366443    -0.00500
C173        C  0.36458236  0.05138882  0.16193000    -0.12200
C174        C  0.33987162  0.02724495  0.17282084     0.01800
H175        H  0.36214188  0.01920406  0.25128880     0.14700
H176        H  0.36463420  0.06063395  0.13740264     0.14700
C177        C  0.31601916  0.01482591  0.14982631     0.36400
C178        C  0.41130028  0.06552423  0.23866587     0.36300
N179        N  0.29627636  0.50341466  0.12923500    -0.44000
N180        N  0.43051771  0.07573716  0.25695074    -0.44000
C181        C  0.23048393  0.47035758  0.15297319    -0.00400
C182        C  0.22597953  0.99255416  0.16247906    -0.12200
C183        C  0.21924189  0.00610176  0.13684331     0.01900
C184        C  0.21716540  0.99738689  0.10235847    -0.00500
C185        C  0.21721426  0.47281870  0.09427871    -0.12200
C186        C  0.22455270  0.45947047  0.11935402     0.01800
H187        H  0.22785029  0.99980021  0.18884152     0.14700
H188        H  0.21342124  0.46438469  0.06833687     0.14700
C189        C  0.22508184  0.43424989  0.11016978     0.36400
C190        C  0.21418585  0.02852643  0.14664014     0.36300
N191        N  0.22530997  0.41392763  0.10285688    -0.44000
N192        N  0.21001063  0.04643379  0.15450435    -0.44000
C193        C  0.24549917  0.50243624  0.40285900    -0.00400
C194        C  0.24495438  0.47718940  0.41073637    -0.12200
C195        C  0.25085311  0.46241732  0.38566102     0.01900
C196        C  0.25838510  0.47338974  0.35213738    -0.00500
C197        C  0.26141191  0.99941959  0.34532682    -0.12200
C198        C  0.25457703  0.01370291  0.36993878     0.01800
H199        H  0.23894149  0.46845156  0.43641880     0.14700
H200        H  0.26576073  0.00745885  0.31923938     0.14700
C201        C  0.25433453  0.03885503  0.35999792     0.36400
C202        C  0.24875042  0.43605757  0.39497135     0.36300
N203        N  0.25411338  0.05899005  0.35202071    -0.44000
N204        N  0.24692197  0.41485616  0.40246507    -0.44000
C205        C  0.30274630  0.07530995  0.06318332    -0.00400
C206        C  0.32689041  0.07338644  0.05722431    -0.12200
C207        C  0.35119829  0.08896332  0.07748074     0.01900
C208        C  0.35129891  0.10624534  0.10485473    -0.00500
C209        C  0.32662902  0.10675817  0.11205705    -0.12200
C210        C  0.30268584  0.09191634  0.09132719     0.01800
H211        H  0.32718883  0.06070835  0.03593286     0.14700
H212        H  0.32642482  0.11970837  0.13309524     0.14700
C213        C  0.27844079  0.09465949  0.09926183     0.36400
C214        C  0.37574992  0.08671271  0.06977368     0.36300
N215        N  0.25922948  0.09720237  0.10565056    -0.44000
N216        N  0.39536112  0.08479067  0.06361376    -0.44000
C217        C  0.09172185  0.40396671  0.43144655    -0.00400
C218        C  0.11531392  0.41823053  0.40969029    -0.12200
C219        C  0.13963781  0.44277022  0.42070644     0.01900
C220        C  0.14065871  0.45349271  0.45406843    -0.00500
C221        C  0.11620092  0.44095688  0.47449239    -0.12200
C222        C  0.09182654  0.41639392  0.46348068     0.01800
H223        H  0.11554323  0.40923357  0.38487763     0.14700
H224        H  0.11630680  0.45011484  0.49932156     0.14700
C225        C  0.06725202  0.40417282  0.48559665     0.36400
C226        C  0.16312739  0.45655515  0.39710567     0.36300
N227        N  0.04748400  0.39443717  0.50319990    -0.44000
N228        N  0.18152507  0.46735129  0.37756259    -0.44000
C229        C  0.07184856  0.16796287  0.10832382    -0.00400
C230        C  0.05470870  0.17073242  0.08385590    -0.12200
C231        C  0.03056208  0.17140745  0.09390452     0.01900
C232        C  0.02287513  0.16882463  0.12893751    -0.00500
C233        C  0.03862536  0.16408777  0.15322196    -0.12200
C234        C  0.06292289  0.16355208  0.14335037     0.01800
H235        H  0.06122202  0.17452278  0.05710889     0.14700
H236        H  0.03212120  0.16117300  0.17999673     0.14700
C237        C  0.07871338  0.15956206  0.17012373     0.36400
C238        C  0.01494411  0.17642495  0.06793295     0.36300
N239        N  0.09141478  0.15664097  0.19171975    -0.44000
N240        N  0.00274211  0.18065026  0.04689699    -0.44000
C241        C  0.11247000  0.24659504  0.02602058    -0.00400
C242        C  0.11727233  0.24938413  0.49014962    -0.12200
C243        C  0.10045220  0.25458372  0.46791549     0.01900
C244        C  0.07765571  0.25685586  0.48083667    -0.00500
C245        C  0.07214749  0.25347030  0.51646655    -0.12200
C246        C  0.08932308  0.24861011  0.03906013     0.01800
H247        H  0.13453633  0.24772049  0.47904607     0.14700
H248        H  0.05535604  0.25622650  0.52696424     0.14700
C249        C  0.08314812  0.24678305  0.07541583     0.36400
C250        C  0.10737245  0.25802721  0.43169094     0.36300
N251        N  0.07822887  0.24550649  0.10456640    -0.44000
N252        N  0.11295072  0.26081475  0.40268218    -0.44000
C253        C  0.22108067  0.30057720  0.14472057    -0.00400
C254        C  0.22358376  0.29898873  0.18049075    -0.12200
C255        C  0.22686012  0.32091305  0.20246820     0.01900
C256        C  0.22807564  0.34529585  0.18856747    -0.00500
C257        C  0.22681798  0.34707325  0.15246617    -0.12200
C258        C  0.22331128  0.32517837  0.13079707     0.01800
H259        H  0.22097291  0.27973794  0.19152103     0.14700
H260        H  0.22818705  0.36557979  0.14077514     0.14700
C261        C  0.22090299  0.32791955  0.09419857     0.36400
C262        C  0.22796451  0.31725179  0.23902812     0.36300
N263        N  0.21890323  0.33002355  0.06489525    -0.44000
N264        N  0.22877992  0.31430786  0.26836356    -0.44000
C265        C  0.17037419  0.13463561  0.04482331    -0.00400
C266        C  0.16586206  0.11386793  0.06871762    -0.12200
C267        C  0.16490229  0.08896836  0.05815744     0.01900
C268        C  0.16927824  0.08491112  0.02298966    -0.00500
C269        C  0.17162828  0.10498778  0.99890291    -0.12200
C270        C  0.17209124  0.12960355  0.00952093     0.01800
H271        H  0.16328565  0.11721154  0.09571004     0.14700
H272        H  0.17502359  0.10248624  0.47192895     0.14700
C273        C  0.17570887  0.15006268  0.48382373     0.36400
C274        C  0.16004317  0.06835671  0.08422950     0.36300
N275        N  0.17857498  0.16638695  0.46316824    -0.44000
N276        N  0.15617288  0.05190748  0.10519399    -0.44000
C277        C  0.36726448  0.22430478  0.27194262    -0.00400
C278        C  0.36106977  0.21879956  0.23660314    -0.12200
C279        C  0.37776025  0.21297179  0.21442354     0.01900
C280        C  0.40202188  0.21326425  0.22684037    -0.00500
C281        C  0.40885977  0.21948275  0.26182776    -0.12200
C282        C  0.39163037  0.22454387  0.28440111     0.01800
H283        H  0.34270392  0.21855627  0.22609287     0.14700
H284        H  0.42675356  0.21865584  0.27205908     0.14700
C285        C  0.39909609  0.22907469  0.32031686     0.36400
C286        C  0.36901038  0.20584750  0.17902011     0.36300
N287        N  0.40474467  0.23244423  0.34923822    -0.44000
N288        N  0.36193520  0.19987674  0.15073780    -0.44000
C289        C  0.40939108  0.30109591  0.35632625    -0.00400
C290        C  0.41412877  0.29766462  0.39127101    -0.12200
C291        C  0.43832981  0.29742805  0.40181255     0.01900
C292        C  0.45911011  0.30154457  0.37756405    -0.00500
C293        C  0.45575793  0.30724310  0.34320041    -0.12200
C294        C  0.43113406  0.30681551  0.33234003     0.01800
H295        H  0.39821963  0.29374227  0.41057574     0.14700
H296        H  0.47205886  0.31108811  0.32448607     0.14700
C297        C  0.42857748  0.31151041  0.29640073     0.36400
C298        C  0.44150404  0.29323644  0.43777929     0.36300
N299        N  0.42658124  0.31532853  0.26757782    -0.44000
N300        N  0.44410841  0.28999001  0.46661268    -0.44000
C301        C  0.27707733  0.25742026  0.44175338    -0.00400
C302        C  0.28309430  0.25207099  0.47482867    -0.12200
C303        C  0.26312529  0.24418129  0.50145782     0.01900
C304        C  0.23634415  0.24137039  0.49511081    -0.00500
C305        C  0.23023954  0.24633619  0.46201409    -0.12200
C306        C  0.25011055  0.25425505  0.43550397     0.01800
H307        H  0.30324233  0.25355410  0.47973015     0.14700
H308        H  0.20968051  0.24378945  0.45672819     0.14700
C309        C  0.24120768  0.25712416  0.40167865     0.36400
C310        C  0.27017666  0.23751211  0.53445777     0.36300
N311        N  0.23384827  0.25925779  0.37464256    -0.44000
N312        N  0.27588889  0.23210021  0.56081622    -0.44000
C313        C  0.20265682  0.21168677  0.19337304    -0.00400
C314        C  0.19985107  0.22403528  0.22366106    -0.12200
C315        C  0.21995521  0.23265748  0.24991963     0.01900
C316        C  0.24398663  0.22970191  0.24585579    -0.00500
C317        C  0.24647323  0.21660298  0.21630028    -0.12200
C318        C  0.22595585  0.20708745  0.19047707     0.01800
H319        H  0.18231999  0.22773493  0.22646956     0.14700
H320        H  0.26448753  0.21365232  0.21346685     0.14700
C321        C  0.23029210  0.19355572  0.16099846     0.36400
C322        C  0.21590338  0.24563316  0.28009432     0.36300
N323        N  0.23386562  0.18263483  0.13755225    -0.44000
N324        N  0.21217788  0.25589572  0.30408414    -0.44000
C325        C  0.24667930  0.12623422  0.44074359    -0.00400
C326        C  0.24650602  0.12333600  0.40451866    -0.12200
C327        C  0.25202155  0.14553592  0.38247299     0.01900
C328        C  0.25815353  0.17170971  0.39606521    -0.00500
C329        C  0.25678914  0.17454217  0.43196069    -0.12200
C330        C  0.25090796  0.15206599  0.45432409     0.01800
H331        H  0.24220836  0.10360503  0.39292135     0.14700
H332        H  0.26175176  0.19473088  0.44263514     0.14700
C333        C  0.24989031  0.15647860  0.49081174     0.36400
C334        C  0.25135248  0.14098878  0.34576276     0.36300
N335        N  0.24899102  0.16017268  0.02003113    -0.44000
N336        N  0.25052950  0.13723455  0.31636348    -0.44000
C337        C  0.30389114  0.38362240  0.27356604    -0.00400
C338        C  0.30081126  0.36272864  0.25003624    -0.12200
C339        C  0.30242618  0.33926120  0.26075715     0.01900
C340        C  0.30799436  0.33659468  0.29549038    -0.00500
C341        C  0.31265182  0.35803939  0.31877220    -0.12200
C342        C  0.31060857  0.38136888  0.30825118     0.01800
H343        H  0.29496117  0.36351914  0.22364784     0.14700
H344        H  0.31721434  0.35621398  0.34542255     0.14700
C345        C  0.31462277  0.40214561  0.33397828     0.36400
C346        C  0.29632356  0.31720199  0.23603176     0.36300
N347        N  0.31764313  0.41866833  0.35466778    -0.44000
N348        N  0.29114685  0.29954314  0.21608240    -0.44000
Fe349      Fe  0.33132077  0.27366254  0.79135913     1.65800
Fe350      Fe  0.32967751  0.24317952  0.86587390     1.73200
Fe351      Fe  0.27713554  0.25346844  0.84600399     1.54400
O352        O  0.28631528  0.29098923  0.82084454    -0.81900
O353        O  0.29642624  0.20315104  0.86207743    -0.80200
O354        O  0.33059503  0.31001811  0.80182666    -0.84400
O355        O  0.29208772  0.25644874  0.76494082    -0.79200
O356        O  0.29687576  0.27710339  0.88801241    -0.81000
O357        O  0.35174618  0.23465142  0.82633710    -0.83800
C358        C  0.26599410  0.23944873  0.77266192     0.97000
C359        C  0.30852448  0.31134452  0.80743354     1.04400
O360        O  0.31203699  0.25577465  0.83334775    -1.12700
O361        O  0.36163801  0.28357520  0.86989129    -0.75200
O362        O  0.37225537  0.29119708  0.81463806    -0.78700
O363        O  0.25763261  0.23120091  0.80310423    -0.79400
C364        C  0.37992641  0.29308066  0.84620560     0.95900
O365        O  0.33335426  0.23877606  0.77781307    -0.77300
O366        O  0.30974096  0.24889859  0.90993003    -0.82500
C367        C  0.27274702  0.19744057  0.87475702     0.98500
C368        C  0.29718957  0.26298589  0.91300188     1.04400
O369        O  0.26352058  0.21472453  0.87298838    -0.78200
C370        C  0.34943109  0.23230951  0.79348884     1.02700
Fe371      Fe  0.14942670  0.19880264  0.54229672     1.65800
Fe372      Fe  0.15064539  0.22734672  0.61802263     1.73200
Fe373      Fe  0.20371693  0.21845706  0.59558017     1.54400
O374        O  0.19389672  0.18065694  0.56980935    -0.81900
O375        O  0.18289751  0.26731925  0.61326395    -0.80200
O376        O  0.14971705  0.16251699  0.55090626    -0.84400
O377        O  0.18823313  0.21566635  0.51491527    -0.79200
O378        O  0.18511708  0.19464467  0.63773568    -0.81000
O379        O  0.12742897  0.23544797  0.58002552    -0.83800
C380        C  0.21436876  0.23237755  0.52227294     0.97000
C381        C  0.17133625  0.16061353  0.55648858     1.04400
O382        O  0.16852395  0.21558301  0.58443921    -1.12700
O383        O  0.11955107  0.18673232  0.62198110    -0.75200
O384        O  0.10902957  0.18058672  0.56657742    -0.78700
O385        O  0.22260308  0.24097633  0.55260097    -0.79400
C386        C  0.10141716  0.17711767  0.59835855     0.95900
O387        O  0.14791998  0.23427221  0.53153100    -0.77300
O388        O  0.17163201  0.22210113  0.66093165    -0.82500
C389        C  0.20705325  0.27407292  0.62474558     0.98500
C390        C  0.18416262  0.20795246  0.66343670     1.04400
O391        O  0.21702096  0.25732761  0.62292836    -0.78200
C392        C  0.13061997  0.23916308  0.54738983     1.02700
Fe393      Fe  0.20198721  0.04136583  0.95509917     1.65800
Fe394      Fe  0.22935312  0.06755263  0.53159236     1.73200
Fe395      Fe  0.22686017  0.00927581  0.50344548     1.54400
O396        O  0.18806536  0.47939776  0.97545795    -0.81900
O397        O  0.27053040  0.07889453  0.52773446    -0.80200
O398        O  0.16462515  0.50196561  0.96523759    -0.84400
O399        O  0.22009687  0.02208737  0.92533760    -0.79200
O400        O  0.20065938  0.49782634  0.54569672    -0.81000
O401        O  0.23668204  0.09973980  0.99470770    -0.83800
C402        C  0.23983314  0.01663738  0.93078390     0.97000
C403        C  0.16575013  0.47957177  0.96619573     1.04400
O404        O  0.21969857  0.03944250  0.49646508    -1.12700
O405        O  0.18797456  0.05569390  0.53534543    -0.75200
O406        O  0.18230274  0.06143157  0.98043750    -0.78700
O407        O  0.25069573  0.01939693  0.96014905    -0.79400
C408        C  0.17848644  0.06471072  0.51232886     0.95900
O409        O  0.23647041  0.07934354  0.94543372    -0.77300
O410        O  0.22427890  0.03913015  0.57234629    -0.82500
C411        C  0.27856214  0.06254882  0.53888526     0.98500
C412        C  0.21307603  0.01224080  0.57294625     1.04400
O413        O  0.26438390  0.03580033  0.53297281    -0.78200
C414        C  0.24035330  0.10089415  0.96191028     1.02700
Fe415      Fe  0.27434160  0.42984475  0.70506726     1.65800
Fe416      Fe  0.24253473  0.40280693  0.77963339     1.73200
Fe417      Fe  0.25176271  0.46425178  0.75395405     1.54400
O418        O  0.29172943  0.99280422  0.72884964    -0.81900
O419        O  0.20270935  0.39535696  0.77241819    -0.80200
O420        O  0.31020306  0.46722403  0.71549423    -0.84400
O421        O  0.25793890  0.45080248  0.67521299    -0.79200
O422        O  0.27506360  0.47208863  0.79696437    -0.81000
O423        O  0.23517062  0.37107657  0.74237386    -0.83800
C424        C  0.23928860  0.45800210  0.68069227     0.97000
C425        C  0.31080587  0.49049291  0.71740480     1.04400
O426        O  0.25604016  0.43225162  0.74579904    -1.12700
O427        O  0.28241400  0.41045400  0.78650719    -0.75200
O428        O  0.29160913  0.40784123  0.73134640    -0.78700
O429        O  0.22920976  0.45710063  0.71032811    -0.79400
C430        C  0.29353077  0.40297148  0.76327358     0.95900
O431        O  0.23934446  0.39267308  0.69313915    -0.77300
O432        O  0.24799190  0.43083589  0.82117762    -0.82500
C433        C  0.19630530  0.41280374  0.78454776     0.98500
C434        C  0.26197634  0.45782774  0.82293453     1.04400
O435        O  0.21314425  0.43954337  0.78201852    -0.78200
C436        C  0.23363013  0.37059588  0.70947116     1.02700
Fe437      Fe  0.04566724  0.32267831  0.87199411     1.65800
Fe438      Fe  0.07391022  0.32603929  0.94888357     1.73200
Fe439      Fe  0.01137823  0.27103939  0.92917326     1.54400
O440        O  0.48271210  0.27964665  0.90344978    -0.81900
O441        O  0.08245954  0.29423055  0.94738830    -0.80200
O442        O  0.50836573  0.32173198  0.87849675    -0.84400
O443        O  0.02423802  0.28294450  0.84705449    -0.79200
O444        O  0.50726094  0.29168747  0.96997849    -0.81000
O445        O  0.10477937  0.34829293  0.90972715    -0.83800
C446        C  0.01401983  0.25715315  0.85604270     1.01200
C447        C  0.48482679  0.30092372  0.88738416     1.04400
O448        O  0.04371926  0.30593062  0.91585644    -1.12700
O449        O  0.06424731  0.35717894  0.94997947    -0.75200
O450        O  0.06731160  0.36416138  0.89342122    -0.78700
O451        O  0.01335141  0.24979935  0.88704899    -0.79400
C452        C  0.07175944  0.37365913  0.92443804     0.95900
O453        O  0.08304615  0.32438384  0.86312038    -0.77300
O454        O  0.04822400  0.30625325  0.99315879    -0.82500
C455        C  0.06504515  0.27018786  0.95969234     0.98500
C456        C  0.02136621  0.29260887  0.99554034     1.04400
O457        O  0.03803600  0.25943733  0.95713894    -0.78200
C458        C  0.10488311  0.34397564  0.87733355     1.02700
Fe459      Fe  0.43710000  0.14450359  0.62270466     1.65800
Fe460      Fe  0.40694125  0.14400945  0.69774481     1.73200
Fe461      Fe  0.46910754  0.19872898  0.67743038     1.54400
O462        O  0.99863774  0.19090890  0.65228022    -0.81900
O463        O  0.39841372  0.17567770  0.69444317    -0.80200
O464        O  0.47396857  0.14628312  0.63438174    -0.84400
O465        O  0.45933383  0.18377044  0.59663932    -0.79200
O466        O  0.47415083  0.17986778  0.71895565    -0.81000
O467        O  0.37688415  0.12203460  0.65802707    -0.83800
C468        C  0.46784864  0.20967486  0.60411707     0.97000
C469        C  0.99714869  0.16864881  0.63980645     1.04400
O470        O  0.43725275  0.16302662  0.66490169    -1.12700
O471        O  0.41586083  0.11239634  0.70099994    -0.75200
O472        O  0.41449926  0.10377125  0.64500650    -0.78700
O473        O  0.46612899  0.21766980  0.63426515    -0.79400
C474        C  0.40879243  0.09517571  0.67618783     0.95900
O475        O  0.39962835  0.14062408  0.60880226    -0.77300
O476        O  0.43264257  0.16436352  0.74199680    -0.82500
C477        C  0.41530070  0.19984983  0.70664771     0.98500
C478        C  0.45953233  0.17735096  0.74493762     1.04400
O479        O  0.44230245  0.21056735  0.70495023    -0.78200
C480        C  0.37716691  0.12435273  0.62516623     1.02700
C481        C  0.47456153  0.19411289  0.77632946    -0.00400
C482        C  0.45887822  0.19395447  0.80511333    -0.12200
C483        C  0.47174369  0.21354596  0.83198227     0.01900
C484        C  0.50065223  0.23452399  0.82987104    -0.00500
C485        C  0.51665929  0.23406054  0.80217557    -0.12200
C486        C  0.50427268  0.21379944  0.77605684     0.01800
H487        H  0.43634107  0.17913340  0.80618585     0.14700
H488        H  0.03901301  0.24964406  0.80096214     0.14700
C489        C  0.52292176  0.21458095  0.74909335     0.36400
C490        C  0.45455816  0.21238327  0.86089105     0.36300
N491        N  0.53796741  0.21526550  0.72762484    -0.44000
N492        N  0.44084604  0.21126819  0.88422871    -0.44000
C493        C  0.00645516  0.27259654  0.52440089    -0.00400
C494        C  0.01965654  0.27702506  0.55645735    -0.12200
C495        C  0.00732494  0.25695398  0.58282953     0.01900
C496        C  0.48134278  0.23160841  0.57724422    -0.00500
C497        C  0.46832292  0.22697771  0.54530378    -0.12200
C498        C  0.48028979  0.24704479  0.51912587     0.01800
H499        H  0.03990017  0.29597129  0.56074566     0.14700
H500        H  0.44856986  0.20750217  0.54078474     0.14700
C501        C  0.46545775  0.23972102  0.98673985     0.36400
C502        C  0.02255243  0.26230249  0.61474819     0.36300
N503        N  0.45325124  0.23349303  0.96101858    -0.44000
N504        N  0.03492160  0.26673204  0.64021728    -0.44000
C505        C  0.17111154  0.40081063  0.80712508    -0.00400
C506        C  0.17537041  0.40486355  0.84281042    -0.12200
C507        C  0.15464063  0.38667217  0.86643268     0.01900
C508        C  0.12876358  0.36382804  0.85437098    -0.00500
C509        C  0.12418144  0.36107942  0.81846878    -0.12200
C510        C  0.14489867  0.37915979  0.79512082     0.01800
H511        H  0.19572760  0.42114356  0.85229028     0.14700
H512        H  0.10427403  0.34454595  0.80822473     0.14700
C513        C  0.13889079  0.37490344  0.75875781     0.36400
C514        C  0.16117289  0.39152685  0.90260377     0.36300
N515        N  0.13385973  0.37155260  0.72966742    -0.44000
N516        N  0.16666204  0.39572522  0.93152938    -0.44000
C517        C  0.33854112  0.01607679  0.70580010    -0.00400
C518        C  0.36275204  0.02832797  0.72643265    -0.12200
C519        C  0.38735858  0.05289116  0.71579819     0.01900
C520        C  0.38809922  0.06520512  0.68366285    -0.00500
C521        C  0.36458184  0.05139009  0.66192990    -0.12200
C522        C  0.33987098  0.02724671  0.67282158     0.01800
H523        H  0.36214374  0.01920364  0.75128665     0.14700
H524        H  0.36463307  0.06063560  0.63740341     0.14700
C525        C  0.31601767  0.01482884  0.64982834     0.36400
C526        C  0.41130238  0.06552295  0.73866240     0.36300
N527        N  0.29627510  0.50341652  0.62924012    -0.44000
N528        N  0.43052046  0.07573510  0.75694630    -0.44000
C529        C  0.23048903  0.47036008  0.65297643    -0.00400
C530        C  0.22598589  0.99255840  0.66248064    -0.12200
C531        C  0.21924973  0.00610759  0.63684541     0.01900
C532        C  0.21717023  0.99739154  0.60236067    -0.00500
C533        C  0.21721423  0.47281811  0.59428350    -0.12200
C534        C  0.22455385  0.45947058  0.61935852     0.01800
H535        H  0.22785859  0.99980508  0.68884309     0.14700
H536        H  0.21341791  0.46438199  0.56834261     0.14700
C537        C  0.22508037  0.43424843  0.61017542     0.36400
C538        C  0.21419887  0.02853554  0.64664268     0.36300
N539        N  0.22530654  0.41392500  0.60286348    -0.44000
N540        N  0.21002816  0.04644580  0.65450731    -0.44000
C541        C  0.24550658  0.50243840  0.90285895    -0.00400
C542        C  0.24496350  0.47719257  0.91073751    -0.12200
C543        C  0.25086240  0.46242020  0.88566273     0.01900
C544        C  0.25839246  0.47339121  0.85213834    -0.00500
C545        C  0.26140056  0.99941427  0.84532083    -0.12200
C546        C  0.25456728  0.01369845  0.86993315     0.01800
H547        H  0.23895180  0.46845562  0.93642063     0.14700
H548        H  0.26573837  0.00744678  0.81923021     0.14700
C549        C  0.25431171  0.03884295  0.85998778     0.36400
C550        C  0.24876254  0.43606197  0.89497443     0.36300
N551        N  0.25408001  0.05897183  0.85200700    -0.44000
N552        N  0.24693669  0.41486190  0.90246923    -0.44000
C553        C  0.30274702  0.07531172  0.56318168    -0.00400
C554        C  0.32688966  0.07338493  0.55722631    -0.12200
C555        C  0.35119696  0.08896088  0.57748380     0.01900
C556        C  0.35129811  0.10624472  0.60485578    -0.00500
C557        C  0.32662965  0.10676116  0.61205444    -0.12200
C558        C  0.30268725  0.09192061  0.59132310     0.01800
H559        H  0.32718754  0.06070503  0.53593665     0.14700
H560        H  0.32642617  0.11971333  0.63309074     0.14700
C561        C  0.27844386  0.09466763  0.59925377     0.36400
C562        C  0.37574764  0.08670790  0.56977946     0.36300
N563        N  0.25923397  0.09721366  0.60563934    -0.44000
N564        N  0.39535802  0.08478393  0.56362165    -0.44000
C565        C  0.09172677  0.40396713  0.93144426    -0.00400
C566        C  0.11531941  0.41822952  0.90968845    -0.12200
C567        C  0.13964298  0.44276990  0.92070361     0.01900
C568        C  0.14066282  0.45349468  0.95406385    -0.00500
C569        C  0.11620454  0.44096013  0.97448709    -0.12200
C570        C  0.09183059  0.41639617  0.96347655     0.01800
H571        H  0.11554936  0.40923103  0.88487728     0.14700
H572        H  0.11630982  0.45011961  0.99931482     0.14700
C573        C  0.06725560  0.40417593  0.98559171     0.36400
C574        C  0.16313340  0.45655322  0.89710370     0.36300
N575        N  0.04748711  0.39444081  0.00319417    -0.44000
N576        N  0.18153194  0.46734830  0.87756158    -0.44000
C577        C  0.07185032  0.16796286  0.60833169    -0.00400
C578        C  0.05470719  0.17072463  0.58386148    -0.12200
C579        C  0.03056023  0.17139951  0.59390823     0.01900
C580        C  0.02287642  0.16882448  0.62894177    -0.00500
C581        C  0.03862991  0.16409527  0.65322919    -0.12200
C582        C  0.06292760  0.16355938  0.64335943     0.01800
H583        H  0.06121795  0.17450893  0.55711331     0.14700
H584        H  0.03212799  0.16118637  0.68000473     0.14700
C585        C  0.07872116  0.15957708  0.67013567     0.36400
C586        C  0.01493874  0.17640913  0.56793373     0.36300
N587        N  0.09142494  0.15666221  0.69173398    -0.44000
N588        N  0.00273376  0.18062805  0.54689550    -0.44000
C589        C  0.11247014  0.24659621  0.52602342    -0.00400
C590        C  0.11727243  0.24938283  0.99014684    -0.12200
C591        C  0.10045163  0.25458114  0.96791238     0.01900
C592        C  0.07765443  0.25685221  0.98083322    -0.00500
C593        C  0.07214547  0.25346589  0.01646290    -0.12200
C594        C  0.08932449  0.24861331  0.53906347     0.01800
H595        H  0.13453708  0.24772030  0.97904374     0.14700
H596        H  0.05535334  0.25622096  0.02696016     0.14700
C597        C  0.08315026  0.24678695  0.57541933     0.36400
C598        C  0.10737224  0.25802491  0.93168792     0.36300
N599        N  0.07823173  0.24551111  0.60457005    -0.44000
N600        N  0.11295083  0.26081271  0.90267925    -0.44000
C601        C  0.22108159  0.30057954  0.64471884    -0.00400
C602        C  0.22358734  0.29899168  0.68048854    -0.12200
C603        C  0.22686487  0.32091611  0.70246642     0.01900
C604        C  0.22807868  0.34529834  0.68856657    -0.00500
C605        C  0.22681778  0.34707497  0.65246560    -0.12200
C606        C  0.22331018  0.32518004  0.63079602     0.01800
H607        H  0.22097800  0.27974124  0.69151838     0.14700
H608        H  0.22818534  0.36558114  0.64077527     0.14700
C609        C  0.22089957  0.32792064  0.59419788     0.36400
C610        C  0.22797299  0.31725596  0.73902596     0.36300
N611        N  0.21889810  0.33002413  0.56489481    -0.44000
N612        N  0.22879160  0.31431320  0.76836115    -0.44000
C613        C  0.17037442  0.13463619  0.54482700    -0.00400
C614        C  0.16585812  0.11386603  0.56871969    -0.12200
C615        C  0.16489814  0.08896666  0.55815800     0.01900
C616        C  0.16927820  0.08491230  0.52299081    -0.00500
C617        C  0.17163147  0.10499103  0.49890525    -0.12200
C618        C  0.17209443  0.12960650  0.50952455     0.01800
H619        H  0.16327865  0.11720751  0.59571182     0.14700
H620        H  0.17501757  0.10248104  0.97192619     0.14700
C621        C  0.17570295  0.15005781  0.98381879     0.36400
C622        C  0.16003398  0.06835172  0.58422766     0.36300
N623        N  0.17856699  0.16638070  0.96316239    -0.44000
N624        N  0.15615942  0.05189962  0.60519003    -0.44000
C625        C  0.36726184  0.22430060  0.77195019    -0.00400
C626        C  0.36106136  0.21878811  0.73661290    -0.12200
C627        C  0.37775077  0.21296024  0.71443173     0.01900
C628        C  0.40201668  0.21325914  0.72684468    -0.00500
C629        C  0.40885985  0.21948421  0.76182997    -0.12200
C630        C  0.39163195  0.22454614  0.78440498     0.01800
H631        H  0.34269210  0.21853974  0.72610555     0.14700
H632        H  0.42675720  0.21866237  0.77205866     0.14700
C633        C  0.39910416  0.22908522  0.82031856     0.36400
C634        C  0.36899573  0.20582988  0.67903071     0.36300
N635        N  0.40475845  0.23246133  0.84923814    -0.44000
N636        N  0.36191640  0.19985439  0.65075039    -0.44000
C637        C  0.40939375  0.30109511  0.85632379    -0.00400
C638        C  0.41413105  0.29766365  0.89126863    -0.12200
C639        C  0.43833134  0.29742588  0.90181051     0.01900
C640        C  0.45911179  0.30154207  0.87756245    -0.00500
C641        C  0.45575972  0.30723984  0.84319836    -0.12200
C642        C  0.43113613  0.30681270  0.83233747     0.01800
H643        H  0.39822215  0.29374206  0.91057329     0.14700
H644        H  0.47206033  0.31108376  0.82448420     0.14700
C645        C  0.42857914  0.31150576  0.79639764     0.36400
C646        C  0.44150436  0.29323292  0.93777716     0.36300
N647        N  0.42658258  0.31532221  0.76757425    -0.44000
N648        N  0.44410756  0.28998507  0.96661044    -0.44000
C649        C  0.27708404  0.25742929  0.94175773    -0.00400
C650        C  0.28309972  0.25207821  0.97483280    -0.12200
C651        C  0.26312942  0.24418629  0.00146072     0.01900
C652        C  0.23634819  0.24137491  0.99511271    -0.00500
C653        C  0.23024513  0.24634327  0.96201640    -0.12200
C654        C  0.25011752  0.25426449  0.93550750     0.01800
H655        H  0.30324753  0.25356120  0.97973487     0.14700
H656        H  0.20968633  0.24379666  0.95672985     0.14700
C657        C  0.24121617  0.25713629  0.90168239     0.36400
C658        C  0.27017979  0.23751538  0.03446024     0.36300
N659        N  0.23385790  0.25927208  0.87464652    -0.44000
N660        N  0.27589142  0.23210224  0.06081829    -0.44000
C661        C  0.20265770  0.21168816  0.69337821    -0.00400
C662        C  0.19985246  0.22403840  0.72366515    -0.12200
C663        C  0.21995540  0.23265918  0.74992523     0.01900
C664        C  0.24398512  0.22970041  0.74586401    -0.00500
C665        C  0.24647070  0.21659922  0.71631005    -0.12200
C666        C  0.22595451  0.20708510  0.69048550     0.01800
H667        H  0.18232300  0.22774078  0.72647149     0.14700
H668        H  0.26448367  0.21364616  0.71347857     0.14700
C669        C  0.23028999  0.19355117  0.66100866     0.36400
C670        C  0.21590465  0.24563719  0.78009838     0.36300
N671        N  0.23386290  0.18262861  0.63756380    -0.44000
N672        N  0.21218025  0.25590169  0.80408708    -0.44000
C673        C  0.24667903  0.12623633  0.94075003    -0.00400
C674        C  0.24649657  0.12333807  0.90452456    -0.12200
C675        C  0.25201403  0.14554041  0.88248205     0.01900
C676        C  0.25815672  0.17171627  0.89607812    -0.00500
C677        C  0.25680137  0.17454915  0.93197483    -0.12200
C678        C  0.25091826  0.15207069  0.95433514     0.01800
H679        H  0.24219026  0.10360521  0.89292442     0.14700
H680        H  0.26177241  0.19473953  0.94265203     0.14700
C681        C  0.24991023  0.15648364  0.99082433     0.36400
C682        C  0.25133626  0.14099390  0.84577102     0.36300
N683        N  0.24896347  0.16016762  0.52001716    -0.44000
N684        N  0.25050640  0.13724055  0.81637112    -0.44000
C685        C  0.30389806  0.38362497  0.77356522    -0.00400
C686        C  0.30081682  0.36273038  0.75003594    -0.12200
C687        C  0.30243120  0.33926279  0.76075741     0.01900
C688        C  0.30800034  0.33659713  0.79549047    -0.00500
C689        C  0.31265971  0.35804290  0.81877154    -0.12200
C690        C  0.31061702  0.38137255  0.80824999     0.01800
H691        H  0.29496566  0.36352017  0.72364790     0.14700
H692        H  0.31722316  0.35621816  0.84542166     0.14700
C693        C  0.31463328  0.40215062  0.83397618     0.36400
C694        C  0.29632641  0.31720223  0.73603317     0.36300
N695        N  0.31765537  0.41867445  0.85466497    -0.44000
N696        N  0.29114788  0.29954209  0.71608510    -0.44000
Fe697      Fe  0.33103135  0.77327881  0.29297788     1.65800
Fe698      Fe  0.32830087  0.74236688  0.36741819     1.73200
Fe699      Fe  0.27604280  0.75280203  0.34589670     1.54400
O700        O  0.28584810  0.79043643  0.32043246    -0.81900
O701        O  0.29487750  0.70269574  0.36214539    -0.80200
O702        O  0.33067243  0.80970557  0.30333154    -0.84400
O703        O  0.29237981  0.75681243  0.26546810    -0.79200
O704        O  0.29461301  0.77610380  0.38850180    -0.81000
O705        O  0.35065861  0.73380728  0.32852957    -0.83800
C706        C  0.26624558  0.73949886  0.27248691     0.97000
C707        C  0.30843314  0.81091371  0.30781531     1.04400
O708        O  0.31140200  0.75561837  0.33470409    -1.12700
O709        O  0.36118533  0.78232676  0.37248844    -0.75200
O710        O  0.37152349  0.79035085  0.31705082    -0.78700
O711        O  0.25765796  0.73049178  0.30261160    -0.79400
C712        C  0.37934099  0.79227076  0.34856375     0.95900
O713        O  0.33219878  0.73797478  0.28009538    -0.77300
O714        O  0.30765703  0.74808890  0.41080222    -0.82500
C715        C  0.27099856  0.69670847  0.37428633     0.98500
C716        C  0.29489763  0.76204177  0.41360617     1.04400
O717        O  0.26182888  0.71402188  0.37279820    -0.78200
C718        C  0.34815649  0.73139330  0.29574822     1.02700
Fe719      Fe  0.14724819  0.69720745  0.04397915     1.65800
Fe720      Fe  0.14993662  0.72825123  0.11846925     1.73200
Fe721      Fe  0.20215855  0.71794471  0.09628509     1.54400
O722        O  0.19205154  0.67983158  0.07077983    -0.81900
O723        O  0.18279799  0.76806142  0.11294689    -0.80200
O724        O  0.14713819  0.66097689  0.05485812    -0.84400
O725        O  0.18585940  0.71322853  0.01613866    -0.79200
O726        O  0.18352123  0.69471800  0.13879013    -0.81000
O727        O  0.12700419  0.73607710  0.07972374    -0.83800
C728        C  0.21200601  0.73054514  0.02289717     0.97000
C729        C  0.16906358  0.65934294  0.05889737     1.04400
O730        O  0.16702586  0.71528909  0.08533198    -1.12700
O731        O  0.11810588  0.68801831  0.12368778    -0.75200
O732        O  0.10704248  0.68020526  0.06854426    -0.78700
O733        O  0.22058680  0.73990582  0.05290969    -0.79400
C734        C  0.09971970  0.67789320  0.10036086     0.95900
O735        O  0.14598960  0.73235056  0.03112195    -0.77300
O736        O  0.17097951  0.72309666  0.16161368    -0.82500
C737        C  0.20659691  0.77426242  0.12516345     0.98500
C738        C  0.18343267  0.70883826  0.16412543     1.04400
O739        O  0.21609624  0.75712983  0.12335035    -0.78200
C740        C  0.12947947  0.73839891  0.04684876     1.02700
Fe741      Fe  0.19913961  0.54017262  0.45504299     1.65800
Fe742      Fe  0.22762189  0.56725918  0.03084275     1.73200
Fe743      Fe  0.22496161  0.50883983  0.00289256     1.54400
O744        O  0.18999140  0.98007692  0.47577292    -0.81900
O745        O  0.26882379  0.57858674  0.02639319    -0.80200
O746        O  0.16722074  0.00311968  0.46396334    -0.84400
O747        O  0.21714316  0.52078501  0.42503406    -0.79200
O748        O  0.20240091  0.99794314  0.04612836    -0.81000
O749        O  0.23460747  0.59903481  0.49364104    -0.83800
C750        C  0.23717928  0.51566486  0.43009465     0.97000
C751        C  0.16799712  0.98055959  0.46573181     1.04400
O752        O  0.21764025  0.53890667  0.99594969    -1.12700
O753        O  0.18629277  0.55569136  0.03543863    -0.75200
O754        O  0.17971984  0.56045941  0.48047283    -0.78700
O755        O  0.24842463  0.51868628  0.45927689    -0.79400
C756        C  0.17622878  0.56407417  0.01234519     0.95900
O757        O  0.23324789  0.57806084  0.44430777    -0.77300
O758        O  0.22286436  0.53904372  0.07170389    -0.82500
C759        C  0.27691277  0.56235618  0.03778249     0.98500
C760        C  0.21156370  0.51214753  0.07241979     1.04400
O761        O  0.26267885  0.53556435  0.03214063    -0.78200
C762        C  0.23787698  0.59986959  0.46079007     1.02700
Fe763      Fe  0.27543219  0.93003099  0.20603409     1.65800
Fe764      Fe  0.24503548  0.90358198  0.28137003     1.73200
Fe765      Fe  0.25413746  0.96509847  0.25580533     1.54400
O766        O  0.28946542  0.49221581  0.22738793    -0.81900
O767        O  0.20518764  0.89610779  0.27526068    -0.80200
O768        O  0.31168389  0.96733108  0.21539112    -0.84400
O769        O  0.25885358  0.95104768  0.17676686    -0.79200
O770        O  0.27790721  0.97262932  0.29835051    -0.81000
O771        O  0.23702975  0.87152928  0.24418511    -0.83800
C772        C  0.24061707  0.95874610  0.18249809     0.97000
C773        C  0.31268051  0.99076281  0.21796489     1.04400
O774        O  0.25793314  0.93285460  0.24726216    -1.12700
O775        O  0.28508292  0.91149301  0.28710669    -0.75200
O776        O  0.29294106  0.90804517  0.23170756    -0.78700
O777        O  0.23124518  0.95852102  0.21242172    -0.79400
C778        C  0.29550139  0.90352763  0.26356110     0.95900
O779        O  0.23997065  0.89284863  0.19514713    -0.77300
O780        O  0.25089236  0.93161719  0.32297241    -0.82500
C781        C  0.19875336  0.91366106  0.28698880     0.98500
C782        C  0.26493375  0.95858504  0.32446811     1.04400
O783        O  0.21560047  0.94042447  0.28427188    -0.78200
C784        C  0.23474057  0.87085131  0.21135035     1.02700
Fe785      Fe  0.04616014  0.82391058  0.37245509     1.65800
Fe786      Fe  0.07404004  0.82622454  0.44930586     1.73200
Fe787      Fe  0.01157206  0.77162208  0.42881199     1.54400
O788        O  0.48306717  0.78049013  0.40340103    -0.81900
O789        O  0.08247233  0.79436300  0.44725131    -0.80200
O790        O  0.50883960  0.82294619  0.37937070    -0.84400
O791        O  0.02452532  0.78419866  0.34689430    -0.79200
O792        O  0.50721746  0.79187228  0.46989084    -0.81000
O793        O  0.10519826  0.84886804  0.41045129    -0.83800
C794        C  0.01419504  0.75827234  0.35554577     1.01200
C795        C  0.48527055  0.80204559  0.38801552     1.04400
O796        O  0.04405161  0.80659537  0.41596827    -1.12700
O797        O  0.06449196  0.85738654  0.45077935    -0.75200
O798        O  0.06807100  0.86535466  0.39452393    -0.78700
O799        O  0.01372104  0.75074581  0.38642423    -0.79400
C800        C  0.07258350  0.87441292  0.42576963     0.95900
O801        O  0.08362778  0.82582336  0.36326935    -0.77300
O802        O  0.04795899  0.80598869  0.49340740    -0.82500
C803        C  0.06487616  0.77018855  0.45904607     0.98500
C804        C  0.02106371  0.79261408  0.49562968     1.04400
O805        O  0.03792516  0.75965312  0.45648645    -0.78200
C806        C  0.10548771  0.84505448  0.37793751     1.02700
Fe807      Fe  0.43448833  0.64490101  0.12271723     1.65800
Fe808      Fe  0.40486280  0.64361254  0.19836073     1.73200
Fe809      Fe  0.46672483  0.69874198  0.17784774     1.54400
O810        O  0.99617730  0.69102133  0.15262769    -0.81900
O811        O  0.39600927  0.67490893  0.19548147    -0.80200
O812        O  0.47145614  0.64666844  0.13363262    -0.84400
O813        O  0.45659166  0.68431776  0.09688405    -0.79200
O814        O  0.47191264  0.67964102  0.21902294    -0.81000
O815        O  0.37451079  0.62153627  0.15867820    -0.83800
C816        C  0.46531756  0.71021996  0.10461674     0.97000
C817        C  0.99464208  0.66885511  0.13979165     1.04400
O818        O  0.43491011  0.66307004  0.16526659    -1.12700
O819        O  0.41429115  0.61235329  0.20086950    -0.75200
O820        O  0.41208326  0.60396970  0.14476709    -0.78700
O821        O  0.46375798  0.71805821  0.13491946    -0.79400
C822        C  0.40681279  0.59520894  0.17593294     0.95900
O823        O  0.39694775  0.64125193  0.10970604    -0.77300
O824        O  0.43073372  0.66415203  0.24271662    -0.82500
C825        C  0.41280157  0.69919858  0.20740371     0.98500
C826        C  0.45767363  0.67740339  0.24524297     1.04400
O827        O  0.43982000  0.71021574  0.20550958    -0.78200
C828        C  0.37462240  0.62436182  0.12587609     1.02700
C829        C  0.47321011  0.69471189  0.27623393    -0.00400
C830        C  0.45807716  0.69474767  0.30549997    -0.12200
C831        C  0.47141598  0.71460124  0.33207138     0.01900
C832        C  0.50031081  0.73561245  0.32931621    -0.00500
C833        C  0.51577932  0.73497942  0.30110173    -0.12200
C834        C  0.50289577  0.71460594  0.27513415     0.01800
H835        H  0.43557929  0.67987876  0.30717909     0.14700
H836        H  0.03809323  0.75058755  0.29929062     0.14700
C837        C  0.52099885  0.71567822  0.24728307     0.36400
C838        C  0.45464654  0.71376281  0.36128387     0.36300
N839        N  0.53558252  0.71666463  0.22502646    -0.44000
N840        N  0.44123112  0.71297102  0.38479128    -0.44000
C841        C  0.00559127  0.77297793  0.02475326    -0.00400
C842        C  0.01869639  0.77692249  0.05682348    -0.12200
C843        C  0.00569618  0.75702744  0.08332146     0.01900
C844        C  0.47911755  0.73232910  0.07789672    -0.00500
C845        C  0.46605530  0.72828813  0.04606825    -0.12200
C846        C  0.47870214  0.74816406  0.01975099     0.01800
H847        H  0.03939296  0.79528187  0.06100237     0.14700
H848        H  0.44583067  0.70932608  0.04166035     0.14700
C849        C  0.46379590  0.74126934  0.48742166     0.36400
C850        C  0.02087188  0.76171055  0.11516283     0.36300
N851        N  0.45158841  0.73540532  0.46170659    -0.44000
N852        N  0.03315012  0.76551375  0.14059600    -0.44000
C853        C  0.17293127  0.90157942  0.30856539    -0.00400
C854        C  0.17585951  0.90703712  0.34414933    -0.12200
C855        C  0.15473697  0.88898863  0.36757137     0.01900
C856        C  0.12980796  0.86490454  0.35538489    -0.00500
C857        C  0.12654983  0.86072751  0.31944021    -0.12200
C858        C  0.14762469  0.87858821  0.29633946     0.01800
H859        H  0.19556978  0.92429521  0.35390931     0.14700
H860        H  0.10748295  0.84309410  0.30896343     0.14700
C861        C  0.14316687  0.87237963  0.25998684     0.36400
C862        C  0.15995808  0.89531374  0.40377527     0.36300
N863        N  0.13955269  0.86741155  0.23087371    -0.44000
N864        N  0.16442907  0.90064762  0.43272631    -0.44000
C865        C  0.33661325  0.51592146  0.20539066    -0.00400
C866        C  0.36058441  0.52851598  0.22640396    -0.12200
C867        C  0.38520658  0.55306842  0.21580707     0.01900
C868        C  0.38614334  0.56519596  0.18344357    -0.00500
C869        C  0.36286845  0.55104744  0.16138214    -0.12200
C870        C  0.33820961  0.52675460  0.17213133     0.01800
H871        H  0.35981208  0.51958623  0.25144996     0.14700
H872        H  0.36308783  0.56004171  0.13659583     0.14700
C873        C  0.31473969  0.51364035  0.14859984     0.36400
C874        C  0.40901249  0.56578998  0.23888311     0.36300
N875        N  0.29726827  0.00529581  0.13084796    -0.44000
N876        N  0.42813550  0.57604855  0.25730996    -0.44000
C877        C  0.23135397  0.97057757  0.15444064    -0.00400
C878        C  0.22798189  0.49408518  0.16093594    -0.12200
C879        C  0.22074407  0.50755107  0.13580782     0.01900
C880        C  0.21569786  0.49725910  0.10179229    -0.00500
C881        C  0.22153362  0.97471046  0.09459291    -0.12200
C882        C  0.22877519  0.96154631  0.12002391     0.01800
H883        H  0.23215916  0.50247632  0.18691345     0.14700
H884        H  0.22031036  0.96777482  0.06817075     0.14700
C885        C  0.23343989  0.93886880  0.11004157     0.36400
C886        C  0.21777561  0.53119633  0.14597858     0.36300
N887        N  0.23725940  0.92074048  0.10209757    -0.44000
N888        N  0.21510759  0.54991328  0.15454382    -0.44000
C889        C  0.24827387  0.00342537  0.40370855    -0.00400
C890        C  0.24894404  0.97889087  0.41216349    -0.12200
C891        C  0.25492649  0.96406775  0.38728193     0.01900
C892        C  0.26130251  0.97430099  0.35336670    -0.00500
C893        C  0.25967269  0.49919034  0.34471735    -0.12200
C894        C  0.25290318  0.51343525  0.36948710     0.01800
H895        H  0.24383335  0.97072056  0.43817664     0.14700
H896        H  0.26489424  0.50784898  0.31894668     0.14700
C897        C  0.25376892  0.53923971  0.36008222     0.36400
C898        C  0.25423681  0.93849429  0.39724157     0.36300
N899        N  0.25444522  0.55989064  0.35245720    -0.44000
N900        N  0.25358328  0.91795793  0.40536113    -0.44000
C901        C  0.30098376  0.57523903  0.06235479    -0.00400
C902        C  0.32564942  0.57428080  0.05622592    -0.12200
C903        C  0.34964725  0.58982774  0.07704010     0.01900
C904        C  0.34894627  0.60606875  0.10519777    -0.00500
C905        C  0.32383640  0.60572415  0.11239455    -0.12200
C906        C  0.30024441  0.59104983  0.09101888     0.01800
H907        H  0.32658129  0.56238462  0.03441913     0.14700
H908        H  0.32305614  0.61803374  0.13383935     0.14700
C909        C  0.27577963  0.59347920  0.09858407     0.36400
C910        C  0.37478463  0.58869700  0.06907149     0.36300
N911        N  0.25645597  0.59592567  0.10457465    -0.44000
N912        N  0.39493469  0.58777519  0.06277952    -0.44000
C913        C  0.09285169  0.90467461  0.43370608    -0.00400
C914        C  0.11415132  0.92089000  0.40958393    -0.12200
C915        C  0.13873232  0.94577522  0.41954518     0.01900
C916        C  0.14260366  0.95446286  0.45430993    -0.00500
C917        C  0.12044788  0.93986973  0.47765412    -0.12200
C918        C  0.09558074  0.91545134  0.46762194     0.01800
H919        H  0.11246906  0.91333411  0.38337893     0.14700
H920        H  0.12262722  0.94754963  0.50388232     0.14700
C921        C  0.07330446  0.90179879  0.49285725     0.36400
C922        C  0.15978120  0.96191368  0.39373272     0.36300
N923        N  0.05545685  0.89097890  0.51310715    -0.44000
N924        N  0.17643058  0.97490785  0.37287492    -0.44000
C925        C  0.07016825  0.66895725  0.11045479    -0.00400
C926        C  0.05212175  0.66935066  0.08526380    -0.12200
C927        C  0.02749186  0.66942124  0.09456584     0.01900
C928        C  0.02045057  0.66896733  0.12957210    -0.00500
C929        C  0.03724270  0.66682041  0.15474673    -0.12200
C930        C  0.06179964  0.66653962  0.14562847     0.01800
H931        H  0.05812219  0.67154039  0.05835266     0.14700
H932        H  0.03123783  0.66554860  0.18159531     0.14700
C933        C  0.07825091  0.66464874  0.17325468     0.36400
C934        C  0.01060800  0.67168781  0.06782492     0.36300
N935        N  0.09141415  0.66332436  0.19552628    -0.44000
N936        N  0.99713132  0.67363061  0.04644574    -0.44000
C937        C  0.11144659  0.74573608  0.02518367    -0.00400
C938        C  0.11657966  0.74878776  0.48934688    -0.12200
C939        C  0.09988577  0.75408945  0.46699774     0.01900
C940        C  0.07711974  0.75641652  0.47986324    -0.00500
C941        C  0.07110347  0.75244648  0.51531169    -0.12200
C942        C  0.08793314  0.74719998  0.03794825     0.01800
H943        H  0.13396321  0.74723821  0.47841864     0.14700
H944        H  0.05409999  0.75493348  0.52566518     0.14700
C945        C  0.08068248  0.74389541  0.07403498     0.36400
C946        C  0.10667834  0.75735957  0.43072181     0.36300
N947        N  0.07480345  0.74129789  0.10296039    -0.44000
N948        N  0.11196894  0.75990866  0.40163009    -0.44000
C949        C  0.22061754  0.80031087  0.14618984    -0.00400
C950        C  0.22103200  0.79780628  0.18215662    -0.12200
C951        C  0.22512894  0.82001036  0.20423677     0.01900
C952        C  0.22892086  0.84548343  0.19028418    -0.00500
C953        C  0.22974510  0.84808160  0.15408951    -0.12200
C954        C  0.22566161  0.82599879  0.13231957     0.01800
H955        H  0.21642614  0.77783381  0.19311376     0.14700
H956        H  0.23338651  0.86747910  0.14233225     0.14700
C957        C  0.22616559  0.82997223  0.09557259     0.36400
C958        C  0.22452703  0.81558846  0.24086397     0.36300
N959        N  0.22669936  0.83321860  0.06613607    -0.44000
N960        N  0.22404683  0.81197056  0.27021781    -0.44000
C961        C  0.16799325  0.63343718  0.04645901    -0.00400
C962        C  0.16149777  0.61136490  0.06927935    -0.12200
C963        C  0.16028115  0.58652626  0.05772237     0.01900
C964        C  0.16655954  0.58392414  0.02287904    -0.00500
C965        C  0.17051478  0.60512446  0.99964746    -0.12200
C966        C  0.17102203  0.62958424  0.01109836     0.01800
H967        H  0.15748936  0.61358188  0.09613676     0.14700
H968        H  0.17514021  0.60358152  0.47284371     0.14700
C969        C  0.17569855  0.65089526  0.48613580     0.36400
C970        C  0.15264959  0.56410140  0.08218337     0.36300
N971        N  0.17932463  0.66775947  0.46588541    -0.44000
N972        N  0.14633795  0.54603076  0.10168974    -0.44000
C973        C  0.36555029  0.72318658  0.27407964    -0.00400
C974        C  0.35725126  0.71515765  0.23972657    -0.12200
C975        C  0.37355352  0.70950709  0.21685408     0.01900
C976        C  0.39941727  0.71237395  0.22762142    -0.00500
C977        C  0.40828969  0.72109204  0.26161330    -0.12200
C978        C  0.39149714  0.72607601  0.28493137     0.01800
H979        H  0.33756000  0.71284206  0.23059167     0.14700
H980        H  0.42751564  0.72227901  0.27064103     0.14700
C981        C  0.40112228  0.73332109  0.31992706     0.36400
C982        C  0.36266618  0.69979105  0.18262891     0.36300
N983        N  0.40861950  0.73875951  0.34812950    -0.44000
N984        N  0.35379338  0.69168105  0.15537699    -0.44000
C985        C  0.40918550  0.80125661  0.35811972    -0.00400
C986        C  0.41497137  0.79956159  0.39318244    -0.12200
C987        C  0.43958571  0.79994930  0.40342651     0.01900
C988        C  0.45956734  0.80278657  0.37865366    -0.00500
C989        C  0.45527506  0.80697006  0.34409075    -0.12200
C990        C  0.43034111  0.80602321  0.33357383     0.01800
H991        H  0.39956350  0.79648705  0.41282258     0.14700
H992        H  0.47097386  0.80979028  0.32496840     0.14700
C993        C  0.42665281  0.80855321  0.29731164     0.36400
C994        C  0.44407317  0.79772387  0.43956521     0.36300
N995        N  0.42376206  0.81053445  0.26819906    -0.44000
N996        N  0.44784694  0.79614263  0.46851162    -0.44000
C997        C  0.27498153  0.75676581  0.44262990    -0.00400
C998        C  0.27963061  0.74824029  0.47460096    -0.12200
C999        C  0.25951596  0.73992508  0.50107999     0.01900
C1000       C  0.23372749  0.73937788  0.49555960    -0.00500
C1001       C  0.22893579  0.74769160  0.46371931    -0.12200
C1002       C  0.24923727  0.75666332  0.43752571     0.01800
H1003       H  0.29886849  0.74768321  0.47877568     0.14700
H1004       H  0.20927317  0.74739513  0.45937117     0.14700
C1005       C  0.24219448  0.76453873  0.40533720     0.36400
C1006       C  0.26546585  0.73098690  0.53323293     0.36300
N1007       N  0.23647012  0.77097399  0.37970004    -0.44000
N1008       N  0.27034668  0.72392995  0.55899638    -0.44000
C1009       C  0.20303001  0.71347467  0.19314053    -0.00400
C1010       C  0.19945038  0.72378912  0.22466292    -0.12200
C1011       C  0.21961038  0.73192368  0.25082174     0.01900
C1012       C  0.24443224  0.73051867  0.24547159    -0.00500
C1013       C  0.24802448  0.72002647  0.21428914    -0.12200
C1014       C  0.22758206  0.71113016  0.18842960     0.01800
H1015       H  0.18109607  0.72599937  0.22868508     0.14700
H1016       H  0.26683320  0.71859771  0.21020205     0.14700
C1017       C  0.23330588  0.70070342  0.15699973     0.36400
C1018       C  0.21475884  0.74269615  0.28248581     0.36300
N1019       N  0.23800326  0.69225840  0.13198978    -0.44000
N1020       N  0.21069772  0.75119277  0.30786534    -0.44000
C1021       C  0.24479593  0.62529746  0.43958029    -0.00400
C1022       C  0.24751868  0.62320524  0.40363376    -0.12200
C1023       C  0.25304657  0.64529272  0.38145533     0.01900
C1024       C  0.25614389  0.67052763  0.39465858    -0.00500
C1025       C  0.25205103  0.67250267  0.43012656    -0.12200
C1026       C  0.24647086  0.65022385  0.45263326     0.01800
H1027       H  0.24565162  0.60427510  0.39241314     0.14700
H1028       H  0.25491442  0.69203389  0.44053675     0.14700
C1029       C  0.24338544  0.65405926  0.48882115     0.36400
C1030       C  0.25597683  0.64173504  0.34507235     0.36300
N1031       N  0.24096832  0.65735533  0.01779815    -0.44000
N1032       N  0.25821617  0.63881630  0.31593983    -0.44000
C1033       C  0.30545848  0.88383290  0.27351728    -0.00400
C1034       C  0.30115286  0.86236206  0.25021560    -0.12200
C1035       C  0.30227206  0.83865894  0.26101216     0.01900
C1036       C  0.30830079  0.83623978  0.29563397    -0.00500
C1037       C  0.31427621  0.85825347  0.31857070    -0.12200
C1038       C  0.31289347  0.88189498  0.30794440     0.01800
H1039       H  0.29487359  0.86301104  0.22399269     0.14700
H1040       H  0.31937984  0.85665583  0.34506613     0.14700
C1041       C  0.31836033  0.90335144  0.33332827     0.36400
C1042       C  0.29569103  0.81641947  0.23637405     0.36300
N1043       N  0.32258926  0.92040525  0.35380673    -0.44000
N1044       N  0.29027545  0.79875389  0.21634768    -0.44000
Fe1045     Fe  0.33102935  0.77327784  0.79297901     1.65800
Fe1046     Fe  0.32829832  0.74236379  0.86741744     1.73200
Fe1047     Fe  0.27604183  0.75280300  0.84589989     1.54400
O1048       O  0.28584898  0.79043899  0.82043871    -0.81900
O1049       O  0.29487397  0.70269365  0.86214230    -0.80200
O1050       O  0.33067201  0.80970529  0.80333339    -0.84400
O1051       O  0.29237746  0.75681250  0.76546970    -0.79200
O1052       O  0.29461369  0.77610214  0.88850650    -0.81000
O1053       O  0.35065585  0.73380511  0.82852809    -0.83800
C1054       C  0.26624270  0.73950100  0.77248875     0.97000
C1055       C  0.30843387  0.81091509  0.80781960     1.04400
O1056       O  0.31139991  0.75561729  0.83470508    -1.12700
O1057       O  0.36118290  0.78232313  0.87248954    -0.75200
O1058       O  0.37152176  0.79034887  0.81705219    -0.78700
O1059       O  0.25765444  0.73049539  0.80261381    -0.79400
C1060       C  0.37933888  0.79226818  0.84856534     0.95900
O1061       O  0.33219550  0.73797332  0.78009498    -0.77300
O1062       O  0.30765560  0.74808425  0.91080311    -0.82500
C1063       C  0.27099538  0.69670701  0.87428395     0.98500
C1064       C  0.29489735  0.76203792  0.91360907     1.04400
O1065       O  0.26182663  0.71402126  0.87279781    -0.78200
C1066       C  0.34815336  0.73139157  0.79574688     1.02700
Fe1067     Fe  0.14724712  0.69720987  0.54397603     1.65800
Fe1068     Fe  0.14993611  0.72825444  0.61846587     1.73200
Fe1069     Fe  0.20215832  0.71794847  0.59628178     1.54400
O1070       O  0.19205151  0.67983467  0.57077895    -0.81900
O1071       O  0.18279674  0.76806485  0.61294207    -0.80200
O1072       O  0.14713872  0.66098004  0.55485469    -0.84400
O1073       O  0.18585785  0.71323215  0.51613411    -0.79200
O1074       O  0.18352196  0.69472275  0.63878785    -0.81000
O1075       O  0.12700149  0.73607832  0.57972085    -0.83800
C1076       C  0.21200454  0.73054842  0.52289252     0.97000
C1077       C  0.16906371  0.65934582  0.55889658     1.04400
O1078       O  0.16702539  0.71529237  0.58532842    -1.12700
O1079       O  0.11810693  0.68802119  0.62368584    -0.75200
O1080       O  0.10704205  0.68020640  0.56854289    -0.78700
O1081       O  0.22058611  0.73990825  0.55290520    -0.79400
C1082       C  0.09972016  0.67789468  0.60035981     0.95900
O1083       O  0.14598615  0.73235179  0.53111854    -0.77300
O1084       O  0.17098015  0.72310154  0.66161046    -0.82500
C1085       C  0.20659575  0.77426623  0.62515881     0.98500
C1086       C  0.18343297  0.70884287  0.66412303     1.04400
O1087       O  0.21609558  0.75713405  0.62334563    -0.78200
C1088       C  0.12947543  0.73839920  0.54684567     1.02700
Fe1089     Fe  0.19914537  0.54017506  0.95503817     1.65800
Fe1090     Fe  0.22762124  0.56725885  0.53084474     1.73200
Fe1091     Fe  0.22495923  0.50883869  0.50289432     1.54400
O1092       O  0.18999374  0.98007692  0.97576741    -0.81900
O1093       O  0.26882247  0.57858559  0.52638947    -0.80200
O1094       O  0.16722210  0.00311881  0.96395833    -0.84400
O1095       O  0.21715012  0.52078757  0.92503128    -0.79200
O1096       O  0.20240205  0.99794666  0.54613219    -0.81000
O1097       O  0.23460977  0.59903584  0.99363921    -0.83800
C1098       C  0.23718562  0.51566683  0.93009375     0.97000
C1099       C  0.16799932  0.98055906  0.96572567     1.04400
O1100       O  0.21763684  0.53890515  0.49595273    -1.12700
O1101       O  0.18629272  0.55569242  0.53544562    -0.75200
O1102       O  0.17972419  0.56046157  0.98046552    -0.78700
O1103       O  0.24842934  0.51868758  0.95927699    -0.79400
C1104       C  0.17622688  0.56407380  0.51235275     0.95900
O1105       O  0.23325496  0.57806323  0.94430670    -0.77300
O1106       O  0.22286599  0.53904410  0.57170602    -0.82500
C1107       C  0.27691200  0.56235581  0.53777961     0.98500
C1108       C  0.21156548  0.51214788  0.57242314     1.04400
O1109       O  0.26267790  0.53556375  0.53213969    -0.78200
C1110       C  0.23788086  0.59987114  0.96078848     1.02700
Fe1111     Fe  0.27543394  0.93003203  0.70603615     1.65800
Fe1112     Fe  0.24503733  0.90358280  0.78137186     1.73200
Fe1113     Fe  0.25413807  0.96509865  0.75580564     1.54400
O1114       O  0.28947088  0.49221768  0.72738981    -0.81900
O1115       O  0.20518947  0.89610811  0.77526148    -0.80200
O1116       O  0.31168539  0.96733227  0.71539332    -0.84400
O1117       O  0.25885546  0.95104859  0.67676812    -0.79200
O1118       O  0.27790843  0.97263017  0.79835018    -0.81000
O1119       O  0.23703173  0.87152994  0.74418698    -0.83800
C1120       C  0.24061840  0.95874639  0.68249888     0.97000
C1121       C  0.31268118  0.99076370  0.71796542     1.04400
O1122       O  0.25793475  0.93285536  0.74726379    -1.12700
O1123       O  0.28508479  0.91149412  0.78710944    -0.75200
O1124       O  0.29294291  0.90804642  0.73171024    -0.78700
O1125       O  0.23124528  0.95851993  0.71242215    -0.79400
C1126       C  0.29550362  0.90352919  0.76356382     0.95900
O1127       O  0.23997212  0.89285017  0.69514991    -0.77300
O1128       O  0.25089414  0.93161843  0.82297382    -0.82500
C1129       C  0.19875485  0.91366106  0.78698963     0.98500
C1130       C  0.26493545  0.95858635  0.82446821     1.04400
O1131       O  0.21560156  0.94042450  0.78427274    -0.78200
C1132       C  0.23474177  0.87085249  0.71135230     1.02700
Fe1133     Fe  0.04616470  0.82390564  0.87245422     1.65800
Fe1134     Fe  0.07404451  0.82622389  0.94930641     1.73200
Fe1135     Fe  0.01157616  0.77162048  0.92881510     1.54400
O1136       O  0.48306711  0.78049174  0.90340274    -0.81900
O1137       O  0.08247740  0.79436306  0.94725322    -0.80200
O1138       O  0.50883990  0.82294612  0.87936831    -0.84400
O1139       O  0.02453033  0.78419250  0.84689570    -0.79200
O1140       O  0.50721853  0.79187248  0.96989234    -0.81000
O1141       O  0.10520225  0.84886636  0.91045198    -0.83800
C1142       C  0.01419806  0.75826628  0.85554904     1.01200
C1143       C  0.48527072  0.80204665  0.88801552     1.04400
O1144       O  0.04405586  0.80659279  0.91596910    -1.12700
O1145       O  0.06449578  0.85738552  0.95077717    -0.75200
O1146       O  0.06807471  0.86535066  0.89452084    -0.78700
O1147       O  0.01372206  0.75074079  0.88642849    -0.79400
C1148       C  0.07258695  0.87441053  0.92576592     0.95900
O1149       O  0.08363282  0.82581841  0.86327141    -0.77300
O1150       O  0.04796479  0.80598949  0.99340912    -0.82500
C1151       C  0.06488160  0.77018854  0.95904793     0.98500
C1152       C  0.02106966  0.79261546  0.99563161     1.04400
O1153       O  0.03793042  0.75965265  0.95648908    -0.78200
C1154       C  0.10549211  0.84505121  0.87793880     1.02700
Fe1155     Fe  0.43448825  0.64490313  0.62271415     1.65800
Fe1156     Fe  0.40486121  0.64361358  0.69835695     1.73200
Fe1157     Fe  0.46672325  0.69874311  0.67784638     1.54400
O1158       O  0.99617593  0.69101917  0.65262386    -0.81900
O1159       O  0.39600725  0.67490953  0.69547664    -0.80200
O1160       O  0.47145608  0.64667082  0.63362984    -0.84400
O1161       O  0.45659127  0.68432001  0.59688206    -0.79200
O1162       O  0.47191012  0.67964149  0.71902142    -0.81000
O1163       O  0.37451018  0.62153740  0.65867368    -0.83800
C1164       C  0.46531645  0.71022188  0.60461554     0.97000
C1165       C  0.99464091  0.66885284  0.63978835     1.04400
O1166       O  0.43490910  0.66307143  0.66526378    -1.12700
O1167       O  0.41429020  0.61235483  0.70086612    -0.75200
O1168       O  0.41208369  0.60397185  0.64476342    -0.78700
O1169       O  0.46375692  0.71805968  0.63491845    -0.79400
C1170       C  0.40681341  0.59521093  0.67592916     0.95900
O1171       O  0.39694769  0.64125367  0.60970203    -0.77300
O1172       O  0.43073097  0.66415300  0.74271388    -0.82500
C1173       C  0.41279883  0.69919894  0.70739991     0.98500
C1174       C  0.45767083  0.67740405  0.74524102     1.04400
O1175       O  0.43981738  0.71021629  0.70550719    -0.78200
C1176       C  0.37462219  0.62436341  0.62587165     1.02700
C1177       C  0.47320713  0.69471230  0.77623227    -0.00400
C1178       C  0.45807409  0.69474852  0.80549800    -0.12200
C1179       C  0.47141315  0.71460164  0.83206983     0.01900
C1180       C  0.50030842  0.73561181  0.82931555    -0.00500
C1181       C  0.51577689  0.73497840  0.80110128    -0.12200
C1182       C  0.50289301  0.71460561  0.77513310     0.01800
H1183       H  0.43557595  0.67988035  0.80717652     0.14700
H1184       H  0.03809825  0.75057306  0.79930087     0.14700
C1185       C  0.52099607  0.71567824  0.74728179     0.36400
C1186       C  0.45464351  0.71376415  0.86128161     0.36300
N1187       N  0.53557980  0.71666516  0.72502498    -0.44000
N1188       N  0.44122788  0.71297320  0.88478836    -0.44000
C1189       C  0.00558564  0.77297543  0.52475067    -0.00400
C1190       C  0.01869158  0.77691869  0.55682003    -0.12200
C1191       C  0.00569225  0.75702264  0.58331711     0.01900
C1192       C  0.47911563  0.73233125  0.57789620    -0.00500
C1193       C  0.46605222  0.72829094  0.54606869    -0.12200
C1194       C  0.47869871  0.74816696  0.51975160     0.01800
H1195       H  0.03938833  0.79527796  0.56099889     0.14700
H1196       H  0.44582709  0.70932943  0.54166147     0.14700
C1197       C  0.46380100  0.74126521  0.98741986     0.36400
C1198       C  0.02086909  0.76170464  0.61515730     0.36300
N1199       N  0.45159493  0.73540013  0.96170374    -0.44000
N1200       N  0.03314846  0.76550710  0.64058939    -0.44000
C1201       C  0.17293331  0.90157904  0.80856686    -0.00400
C1202       C  0.17586285  0.90703483  0.84415113    -0.12200
C1203       C  0.15474109  0.88898524  0.86757308     0.01900
C1204       C  0.12981156  0.86490202  0.85538610    -0.00500
C1205       C  0.12655212  0.86072681  0.81944134    -0.12200
C1206       C  0.14762629  0.87858860  0.79634065     0.01800
H1207       H  0.19557365  0.92429213  0.85391120     0.14700
H1208       H  0.10748476  0.84309414  0.80896446     0.14700
C1209       C  0.14316732  0.87238185  0.75998776     0.36400
C1210       C  0.15996374  0.89530815  0.90377725     0.36300
N1211       N  0.13955200  0.86741510  0.73087446    -0.44000
N1212       N  0.16443605  0.90064031  0.93272847    -0.44000
C1213       C  0.33661808  0.51592325  0.70539067    -0.00400
C1214       C  0.36059153  0.52851711  0.72640032    -0.12200
C1215       C  0.38521267  0.55306962  0.71580114     0.01900
C1216       C  0.38614582  0.56519769  0.68343940    -0.00500
C1217       C  0.36286891  0.55104959  0.66138098    -0.12200
C1218       C  0.33821124  0.52675663  0.67213227     0.01800
H1219       H  0.35982180  0.51958701  0.75144513     0.14700
H1220       H  0.36308585  0.56004427  0.63659605     0.14700
C1221       C  0.31473955  0.51364223  0.64860340     0.36400
C1222       C  0.40902154  0.56579089  0.73887275     0.36300
N1223       N  0.29726632  0.00529993  0.63085069    -0.44000
N1224       N  0.42814725  0.57604953  0.75729551    -0.44000
C1225       C  0.23135675  0.97057951  0.65444179    -0.00400
C1226       C  0.22799038  0.49408972  0.66093826    -0.12200
C1227       C  0.22075182  0.50755518  0.63581038     0.01900
C1228       C  0.21570095  0.49726042  0.60179598    -0.00500
C1229       C  0.22153563  0.97471332  0.59459462    -0.12200
C1230       C  0.22877642  0.96154799  0.62002503     0.01800
H1231       H  0.23217102  0.50248281  0.68691491     0.14700
H1232       H  0.22031059  0.96777701  0.56817249     0.14700
C1233       C  0.23343887  0.93886912  0.61004215     0.36400
C1234       C  0.21778797  0.53120330  0.64598041     0.36300
N1235       N  0.23725669  0.92073981  0.60209764    -0.44000
N1236       N  0.21512387  0.54992267  0.65454535    -0.44000
C1237       C  0.24827824  0.00342908  0.90370731    -0.00400
C1238       C  0.24896097  0.97890169  0.91216595    -0.12200
C1239       C  0.25494206  0.96407762  0.88728428     0.01900
C1240       C  0.26130383  0.97430290  0.85336512    -0.00500
C1241       C  0.25967865  0.49919092  0.84471713    -0.12200
C1242       C  0.25290928  0.51343623  0.86948635     0.01800
H1243       H  0.24386092  0.97073720  0.93818227     0.14700
H1244       H  0.26489902  0.50784856  0.81894577     0.14700
C1245       C  0.25377397  0.53923993  0.86008012     0.36400
C1246       C  0.25426704  0.93851210  0.89724793     0.36300
N1247       N  0.25444961  0.55989029  0.85245378    -0.44000
N1248       N  0.25362565  0.91798230  0.90537086    -0.44000
C1249       C  0.30098344  0.57523997  0.56235108    -0.00400
C1250       C  0.32564859  0.57428057  0.55622337    -0.12200
C1251       C  0.34964667  0.58982815  0.57703691     0.01900
C1252       C  0.34894624  0.60607070  0.60519310    -0.00500
C1253       C  0.32383704  0.60572779  0.61238839    -0.12200
C1254       C  0.30024496  0.59105309  0.59101310     0.01800
H1255       H  0.32657988  0.56238284  0.53441781     0.14700
H1256       H  0.32305738  0.61803895  0.63383193     0.14700
C1257       C  0.27578102  0.59348442  0.59857643     0.36400
C1258       C  0.37478371  0.58869654  0.56906918     0.36300
N1259       N  0.25645801  0.59593242  0.60456521    -0.44000
N1260       N  0.39493347  0.58777404  0.56277774    -0.44000
C1261       C  0.09285490  0.90467268  0.93370015    -0.00400
C1262       C  0.11415589  0.92088633  0.90957862    -0.12200
C1263       C  0.13873653  0.94577215  0.91953947     0.01900
C1264       C  0.14260627  0.95446191  0.95430344    -0.00500
C1265       C  0.12044916  0.93987038  0.97764648    -0.12200
C1266       C  0.09558229  0.91545165  0.96761443     0.01800
H1267       H  0.11247476  0.91332883  0.88337465     0.14700
H1268       H  0.12262717  0.94755191  0.00387372     0.14700
C1269       C  0.07330423  0.90180141  0.99284802     0.36400
C1270       C  0.15978599  0.96190951  0.89372713     0.36300
N1271       N  0.05545518  0.89098368  0.01309657    -0.44000
N1272       N  0.17643548  0.97490274  0.87286902    -0.44000
C1273       C  0.07016862  0.66895713  0.61045496    -0.00400
C1274       C  0.05211905  0.66934321  0.58526288    -0.12200
C1275       C  0.02748842  0.66941269  0.59456367     0.01900
C1276       C  0.02044948  0.66896499  0.62956978    -0.00500
C1277       C  0.03724452  0.66682485  0.65474596    -0.12200
C1278       C  0.06180220  0.66654516  0.64562908     0.01800
H1279       H  0.05811754  0.67152818  0.55835137     0.14700
H1280       H  0.03124137  0.66555758  0.68159458     0.14700
C1281       C  0.07825661  0.66466199  0.67325714     0.36400
C1282       C  0.01060162  0.67167234  0.56782113     0.36300
N1283       N  0.09142235  0.66334396  0.69553021    -0.44000
N1284       N  0.99712267  0.67360969  0.54644054    -0.44000
C1285       C  0.11144088  0.74573468  0.52518086    -0.00400
C1286       C  0.11658771  0.74879167  0.98935030    -0.12200
C1287       C  0.09989460  0.75409385  0.96700059     0.01900
C1288       C  0.07712603  0.75641733  0.97986477    -0.00500
C1289       C  0.07110819  0.75244574  0.01531273    -0.12200
C1290       C  0.08792814  0.74719951  0.53794641     0.01800
H1291       H  0.13397275  0.74724420  0.97842319     0.14700
H1292       H  0.05410368  0.75493138  0.02566542     0.14700
C1293       C  0.08067709  0.74389315  0.57403305     0.36400
C1294       C  0.10669169  0.75736965  0.93072584     0.36300
N1295       N  0.07479740  0.74129358  0.60295831    -0.44000
N1296       N  0.11198666  0.75992393  0.90163526    -0.44000
C1297       C  0.22061578  0.80031427  0.64618600    -0.00400
C1298       C  0.22103465  0.79780935  0.68215236    -0.12200
C1299       C  0.22513230  0.82001258  0.70423462     0.01900
C1300       C  0.22892038  0.84548489  0.69028462    -0.00500
C1301       C  0.22973957  0.84808319  0.65409017    -0.12200
C1302       C  0.22565571  0.82600148  0.63231819     0.01800
H1303       H  0.21643215  0.77783754  0.69310769     0.14700
H1304       H  0.23337761  0.86748002  0.64233466     0.14700
C1305       C  0.22615571  0.82997570  0.59557173     0.36400
C1306       C  0.22453574  0.81559085  0.74086133     0.36300
N1307       N  0.22668647  0.83322300  0.56613567    -0.44000
N1308       N  0.22405996  0.81197329  0.77021480    -0.44000
C1309       C  0.16799305  0.63343914  0.54646137    -0.00400
C1310       C  0.16150113  0.61136959  0.56928476    -0.12200
C1311       C  0.16028381  0.58652998  0.55773033     0.01900
C1312       C  0.16655819  0.58392431  0.52288640    -0.00500
C1313       C  0.17051003  0.60512192  0.49965235    -0.12200
C1314       C  0.17101787  0.62958252  0.51110078     0.01800
H1315       H  0.15749572  0.61358933  0.59614249     0.14700
H1316       H  0.17514797  0.60358670  0.97283936     0.14700
C1317       C  0.17570556  0.65089950  0.98613579     0.36400
C1318       C  0.15265514  0.56410767  0.58219432     0.36300
N1319       N  0.17933381  0.66776544  0.96588689    -0.44000
N1320       N  0.14634559  0.54603906  0.60170317    -0.44000
C1321       C  0.36554695  0.72318516  0.77407765    -0.00400
C1322       C  0.35724563  0.71515316  0.73972596    -0.12200
C1323       C  0.37354754  0.70950275  0.71685270     0.01900
C1324       C  0.39941349  0.71237330  0.72761775    -0.00500
C1325       C  0.40828802  0.72109451  0.76160829    -0.12200
C1326       C  0.39149566  0.72607790  0.78492727     0.01800
H1327       H  0.33755276  0.71283488  0.73059296     0.14700
H1328       H  0.42751563  0.72228422  0.77063456     0.14700
C1329       C  0.40112284  0.73332558  0.81992190     0.36400
C1330       C  0.36265728  0.69978266  0.68262953     0.36300
N1331       N  0.40862165  0.73876574  0.84812359    -0.44000
N1332       N  0.35378189  0.69166917  0.65537943    -0.44000
C1333       C  0.40918348  0.80125496  0.85812248    -0.00400
C1334       C  0.41496698  0.79955321  0.89318433    -0.12200
C1335       C  0.43958201  0.79994204  0.90342750     0.01900
C1336       C  0.45956731  0.80278805  0.87865498    -0.00500
C1337       C  0.45527717  0.80697840  0.84409366    -0.12200
C1338       C  0.43034217  0.80602990  0.83357745     0.01800
H1339       H  0.39955676  0.79647214  0.91282415     0.14700
H1340       H  0.47097831  0.80980494  0.82497163     0.14700
C1341       C  0.42665634  0.80856762  0.79731653     0.36400
C1342       C  0.44406586  0.79770811  0.93956519     0.36300
N1343       N  0.42376749  0.81055517  0.76820498    -0.44000
N1344       N  0.44783634  0.79611983  0.96851089    -0.44000
C1345       C  0.27498025  0.75675950  0.94263173    -0.00400
C1346       C  0.27963698  0.74824836  0.97460810    -0.12200
C1347       C  0.25952388  0.73993514  0.00108878     0.01900
C1348       C  0.23372905  0.73937448  0.99556415    -0.00500
C1349       C  0.22892951  0.74767229  0.96371753    -0.12200
C1350       C  0.24922943  0.75664242  0.93752256     0.01800
H1351       H  0.29888039  0.74770232  0.97878627     0.14700
H1352       H  0.20926182  0.74736470  0.95936529     0.14700
C1353       C  0.24217893  0.76450105  0.90532762     0.36400
C1354       C  0.26548284  0.73101356  0.03324818     0.36300
N1355       N  0.23644857  0.77092328  0.87968526    -0.44000
N1356       N  0.27037132  0.72397032  0.05901677    -0.44000
C1357       C  0.20302861  0.71347771  0.69313982    -0.00400
C1358       C  0.19945020  0.72379537  0.72466037    -0.12200
C1359       C  0.21960945  0.73192947  0.75082003     0.01900
C1360       C  0.24442966  0.73052091  0.74547272    -0.00500
C1361       C  0.24802023  0.72002465  0.71429246    -0.12200
C1362       C  0.22757830  0.71112857  0.68843222     0.01800
H1363       H  0.18109746  0.72600877  0.72868032     0.14700
H1364       H  0.26682736  0.71859251  0.71020763     0.14700
C1365       C  0.23330007  0.70069686  0.65700514     0.36400
C1366       C  0.21475865  0.74270521  0.78248164     0.36300
N1367       N  0.23799561  0.69224782  0.63199735    -0.44000
N1368       N  0.21069689  0.75120442  0.80785854    -0.44000
C1369       C  0.24479679  0.62529788  0.93957825    -0.00400
C1370       C  0.24751751  0.62320477  0.90363144    -0.12200
C1371       C  0.25304370  0.64529152  0.88145274     0.01900
C1372       C  0.25614065  0.67052627  0.89465596    -0.00500
C1373       C  0.25204888  0.67250181  0.93012409    -0.12200
C1374       C  0.24647100  0.65022395  0.95263116     0.01800
H1375       H  0.24565073  0.60427474  0.89241084     0.14700
H1376       H  0.25491221  0.69203307  0.94053418     0.14700
C1377       C  0.24338826  0.65406071  0.98881941     0.36400
C1378       C  0.25597394  0.64173379  0.84506974     0.36300
N1379       N  0.24096312  0.65735215  0.51779977    -0.44000
N1380       N  0.25821362  0.63881518  0.81593725    -0.44000
C1381       C  0.30546128  0.88383497  0.77352004    -0.00400
C1382       C  0.30115492  0.86236359  0.75021898    -0.12200
C1383       C  0.30227389  0.83866050  0.76101600     0.01900
C1384       C  0.30830242  0.83624154  0.79563798    -0.00500
C1385       C  0.31427901  0.85825597  0.81857402    -0.12200
C1386       C  0.31289733  0.88189791  0.80794691     0.01800
H1387       H  0.29487531  0.86301219  0.72399603     0.14700
H1388       H  0.31938322  0.85665883  0.84506943     0.14700
C1389       C  0.31836746  0.90335632  0.83332927     0.36400
C1390       C  0.29569314  0.81642102  0.73637801     0.36300
N1391       N  0.32259959  0.92041187  0.85380654    -0.44000
N1392       N  0.29027802  0.79875564  0.71635151    -0.44000
Fe1393     Fe  0.83131936  0.27366194  0.29135579     1.65800
Fe1394     Fe  0.82967403  0.24317634  0.36586919     1.73200
Fe1395     Fe  0.77713197  0.25346445  0.34599797     1.54400
O1396       O  0.78631113  0.29098527  0.32083891    -0.81900
O1397       O  0.79642317  0.20314790  0.36206953    -0.80200
O1398       O  0.83059211  0.31001658  0.30182479    -0.84400
O1399       O  0.79208698  0.25644800  0.26493557    -0.79200
O1400       O  0.79686971  0.27709855  0.38800783    -0.81000
O1401       O  0.85174437  0.23465008  0.32633273    -0.83800
C1402       C  0.76599350  0.23944640  0.27265574     0.97000
C1403       C  0.80852058  0.31134165  0.30742983     1.04400
O1404       O  0.81203450  0.25577248  0.33334325    -1.12700
O1405       O  0.86163427  0.28357185  0.36988958    -0.75200
O1406       O  0.87225330  0.29119638  0.31463691    -0.78700
O1407       O  0.75763166  0.23119719  0.30309747    -0.79400
C1408       C  0.87992340  0.29307869  0.34620474     0.95900
O1409       O  0.83335422  0.23877652  0.27780824    -0.77300
O1410       O  0.80973574  0.24889393  0.40992474    -0.82500
C1411       C  0.77274379  0.19743669  0.37474925     0.98500
C1412       C  0.79718399  0.26298091  0.41299697     1.04400
O1413       O  0.76351708  0.21472040  0.37298152    -0.78200
C1414       C  0.84943064  0.23230959  0.29348427     1.02700
Fe1415     Fe  0.64942754  0.19880322  0.04229342     1.65800
Fe1416     Fe  0.65064328  0.22734319  0.11802136     1.73200
Fe1417     Fe  0.70371589  0.21845513  0.09557933     1.54400
O1418       O  0.69389645  0.18065592  0.06980672    -0.81900
O1419       O  0.68289500  0.26731634  0.11326631    -0.80200
O1420       O  0.64971787  0.16251720  0.05089995    -0.84400
O1421       O  0.68823491  0.21566846  0.01491371    -0.79200
O1422       O  0.68511423  0.19464073  0.13773278    -0.81000
O1423       O  0.62742775  0.23544567  0.08002459    -0.83800
C1424       C  0.71437034  0.23237898  0.02227294     0.97000
C1425       C  0.67133661  0.16061324  0.05648377     1.04400
O1426       O  0.66852338  0.21558162  0.08443730    -1.12700
O1427       O  0.61954963  0.18672824  0.12197628    -0.75200
O1428       O  0.60902927  0.18058583  0.06657233    -0.78700
O1429       O  0.72260385  0.24097602  0.05260170    -0.79400
C1430       C  0.60141613  0.17711521  0.09835327     0.95900
O1431       O  0.64792141  0.23427345  0.03153079    -0.77300
O1432       O  0.67162865  0.22209612  0.16093023    -0.82500
C1433       C  0.70705072  0.27406986  0.12474794     0.98500
C1434       C  0.68415920  0.20794741  0.16343455     1.04400
O1435       O  0.71701879  0.25732483  0.12292963    -0.78200
C1436       C  0.63062002  0.23916245  0.04738929     1.02700
Fe1437     Fe  0.70198431  0.04136405  0.45510024     1.65800
Fe1438     Fe  0.72934973  0.06755013  0.03159326     1.73200
Fe1439     Fe  0.72685885  0.00927435  0.00344632     1.54400
O1440       O  0.68806122  0.47939683  0.47545930    -0.81900
O1441       O  0.77052753  0.07889296  0.02774074    -0.80200
O1442       O  0.66462259  0.50196605  0.46523696    -0.84400
O1443       O  0.72009229  0.02208433  0.42533781    -0.79200
O1444       O  0.70065886  0.49782698  0.04569497    -0.81000
O1445       O  0.73668175  0.09973986  0.49470408    -0.83800
C1446       C  0.73982898  0.01663474  0.43078283     0.97000
C1447       C  0.66574665  0.47957173  0.46619595     1.04400
O1448       O  0.71969824  0.03944158  0.99646467    -1.12700
O1449       O  0.68797061  0.05568971  0.03534151    -0.75200
O1450       O  0.68230140  0.06143094  0.48043924    -0.78700
O1451       O  0.75069319  0.01939532  0.46014716    -0.79400
C1452       C  0.67848466  0.06470861  0.01232494     0.95900
O1453       O  0.73646689  0.07934103  0.44543090    -0.77300
O1454       O  0.72427326  0.03912677  0.07234655    -0.82500
C1455       C  0.77855907  0.06254667  0.03889028     0.98500
C1456       C  0.71307032  0.01223750  0.07294554     1.04400
O1457       O  0.76438091  0.03579832  0.03297657    -0.78200
C1458       C  0.74035136  0.10089261  0.46190641     1.02700
Fe1459     Fe  0.77433768  0.42984273  0.20506542     1.65800
Fe1460     Fe  0.74253264  0.40280636  0.27963298     1.73200
Fe1461     Fe  0.75176036  0.46425104  0.25395294     1.54400
O1462       O  0.79172751  0.99280323  0.22884868    -0.81900
O1463       O  0.70270721  0.39535641  0.27241885    -0.80200
O1464       O  0.81019971  0.46722224  0.21549026    -0.84400
O1465       O  0.75793481  0.45080029  0.17521134    -0.79200
O1466       O  0.77506141  0.47208843  0.29696333    -0.81000
O1467       O  0.73516768  0.37107535  0.24237406    -0.83800
C1468       C  0.73928509  0.45800059  0.18069108     0.97000
C1469       C  0.81080308  0.49049138  0.21740228     1.04400
O1470       O  0.75603756  0.43225067  0.24579803    -1.12700
O1471       O  0.78241203  0.41045335  0.28650552    -0.75200
O1472       O  0.79160546  0.40783935  0.23134438    -0.78700
O1473       O  0.72920697  0.45709970  0.21032722    -0.79400
C1474       C  0.79352764  0.40296984  0.26327152     0.95900
O1475       O  0.73933988  0.39267074  0.19313902    -0.77300
O1476       O  0.74799036  0.43083570  0.32117689    -0.82500
C1477       C  0.69630327  0.41280342  0.28454789     0.98500
C1478       C  0.76197443  0.45782755  0.32293364     1.04400
O1479       O  0.71314213  0.43954301  0.28201791    -0.78200
C1480       C  0.73362635  0.37059391  0.20947142     1.02700
Fe1481     Fe  0.54566493  0.32267889  0.37199453     1.65800
Fe1482     Fe  0.57390769  0.32604146  0.44888470     1.73200
Fe1483     Fe  0.51137669  0.27104022  0.42917404     1.54400
O1484       O  0.98271057  0.27964589  0.40344814    -0.81900
O1485       O  0.58245836  0.29423344  0.44739177    -0.80200
O1486       O  0.00836320  0.32173332  0.37849972    -0.84400
O1487       O  0.52423651  0.28294496  0.34705552    -0.79200
O1488       O  0.00725816  0.29168600  0.46997757    -0.81000
O1489       O  0.60477696  0.34829489  0.40972803    -0.83800
C1490       C  0.51401929  0.25715384  0.35604397     1.01200
C1491       C  0.98482449  0.30092361  0.38738482     1.04400
O1492       O  0.54371727  0.30593174  0.41585722    -1.12700
O1493       O  0.56424359  0.35718039  0.44997887    -0.75200
O1494       O  0.56730851  0.36416217  0.39342054    -0.78700
O1495       O  0.51335120  0.24980035  0.38705035    -0.79400
C1496       C  0.57175578  0.37366028  0.42443713     0.95900
O1497       O  0.58304412  0.32438502  0.36312145    -0.77300
O1498       O  0.54822101  0.30625551  0.49315975    -0.82500
C1499       C  0.56504415  0.27019050  0.45969546     0.98500
C1500       C  0.52136317  0.29261044  0.49554079     1.04400
O1501       O  0.53803495  0.25943935  0.45714108    -0.78200
C1502       C  0.60488091  0.34397714  0.37733451     1.02700
Fe1503     Fe  0.93709879  0.14450253  0.12270487     1.65800
Fe1504     Fe  0.90694054  0.14401027  0.19774488     1.73200
Fe1505     Fe  0.96910834  0.19872767  0.17743050     1.54400
O1506       O  0.49863834  0.19090823  0.15227999    -0.81900
O1507       O  0.89841492  0.17567969  0.19444104    -0.80200
O1508       O  0.97396719  0.14628076  0.13438059    -0.84400
O1509       O  0.95933334  0.18376908  0.09663917    -0.79200
O1510       O  0.97414933  0.17986511  0.21895609    -0.81000
O1511       O  0.87688315  0.12203520  0.15802794    -0.83800
C1512       C  0.96785000  0.20967389  0.10411694     0.97000
C1513       C  0.49714884  0.16864802  0.13980585     1.04400
O1514       O  0.93725256  0.16302604  0.16490179    -1.12700
O1515       O  0.91585808  0.11239577  0.20100135    -0.75200
O1516       O  0.91449758  0.10377072  0.14500771    -0.78700
O1517       O  0.96613158  0.21766938  0.13426514    -0.79400
C1518       C  0.90879027  0.09517525  0.17618906     0.95900
O1519       O  0.89962731  0.14062416  0.10880316    -0.77300
O1520       O  0.93264176  0.16436473  0.24199681    -0.82500
C1521       C  0.91530251  0.19985165  0.20664552     0.98500
C1522       C  0.95953145  0.17735132  0.24493754     1.04400
O1523       O  0.94230414  0.21056796  0.20494911    -0.78200
C1524       C  0.87716581  0.12435295  0.12516716     1.02700
C1525       C  0.97456118  0.19411588  0.27632764    -0.00400
C1526       C  0.95887849  0.19395623  0.30511286    -0.12200
C1527       C  0.97174403  0.21354812  0.33198142     0.01900
C1528       C  0.00065203  0.23452735  0.32986887    -0.00500
C1529       C  0.01665840  0.23406594  0.30217136    -0.12200
C1530       C  0.00427173  0.21380504  0.27605243     0.01800
H1531       H  0.93634179  0.17913368  0.30618692     0.14700
H1532       H  0.53901302  0.24964637  0.30096291     0.14700
C1533       C  0.02292007  0.21458992  0.24908578     0.36400
C1534       C  0.95455899  0.21238478  0.36089112     0.36300
N1535       N  0.03796509  0.21527721  0.22761465    -0.44000
N1536       N  0.94084739  0.21126955  0.38422944    -0.44000
C1537       C  0.50645765  0.27259644  0.02440089    -0.00400
C1538       C  0.51965792  0.27702521  0.05645812    -0.12200
C1539       C  0.50732574  0.25695404  0.08283014     0.01900
C1540       C  0.98134480  0.23160718  0.07724384    -0.00500
C1541       C  0.96832671  0.22697516  0.04530200    -0.12200
C1542       C  0.98029428  0.24704179  0.01912374     0.01800
H1543       H  0.53990103  0.29597195  0.06074733     0.14700
H1544       H  0.94857458  0.20749890  0.04078206     0.14700
C1545       C  0.96545316  0.23972176  0.48674190     0.36400
C1546       C  0.52255191  0.26230324  0.11474996     0.36300
N1547       N  0.95324560  0.23349373  0.46102137    -0.44000
N1548       N  0.53491996  0.26673337  0.14022003    -0.44000
C1549       C  0.67110935  0.40081062  0.30712494    -0.00400
C1550       C  0.67536778  0.40486515  0.34281020    -0.12200
C1551       C  0.65463798  0.38667428  0.36643286     0.01900
C1552       C  0.62876143  0.36382913  0.35437164    -0.00500
C1553       C  0.62417976  0.36107883  0.31846936    -0.12200
C1554       C  0.64489698  0.37915864  0.29512103     0.01800
H1555       H  0.69572458  0.42114596  0.35228979     0.14700
H1556       H  0.60427285  0.34454446  0.30822554     0.14700
C1557       C  0.63888975  0.37490038  0.25875796     0.36400
C1558       C  0.66116971  0.39153059  0.40260394     0.36300
N1559       N  0.63385943  0.37154806  0.22966747    -0.44000
N1560       N  0.66665835  0.39573028  0.43152955    -0.44000
C1561       C  0.83853909  0.01607561  0.20579910    -0.00400
C1562       C  0.86274975  0.02832650  0.22643209    -0.12200
C1563       C  0.88735623  0.05289012  0.21579856     0.01900
C1564       C  0.88809715  0.06520457  0.18366348    -0.00500
C1565       C  0.86458010  0.05138977  0.16192996    -0.12200
C1566       C  0.83986915  0.02724619  0.17282096     0.01800
H1567       H  0.86214118  0.01920174  0.25128588     0.14700
H1568       H  0.86463157  0.06063574  0.13740356     0.14700
C1569       C  0.81601577  0.01482903  0.14982778     0.36400
C1570       C  0.91129950  0.06552196  0.23866356     0.36300
N1571       N  0.79627560  0.50341581  0.12923678    -0.44000
N1572       N  0.93051708  0.07573414  0.25694823    -0.44000
C1573       C  0.73048538  0.47035858  0.15297531    -0.00400
C1574       C  0.72598194  0.99255642  0.16247942    -0.12200
C1575       C  0.71924424  0.00610454  0.13684450     0.01900
C1576       C  0.71716377  0.99738780  0.10235993    -0.00500
C1577       C  0.71721359  0.47281859  0.09428151    -0.12200
C1578       C  0.72455214  0.45947036  0.11935673     0.01800
H1579       H  0.72785553  0.99980375  0.18884173     0.14700
H1580       H  0.71341907  0.46438366  0.06834011     0.14700
C1581       C  0.72507899  0.43424848  0.11017310     0.36400
C1582       C  0.71419266  0.02853199  0.14664200     0.36300
N1583       N  0.72530514  0.41392513  0.10286062    -0.44000
N1584       N  0.71002120  0.04644168  0.15450698    -0.44000
C1585       C  0.74550339  0.50243706  0.40285856    -0.00400
C1586       C  0.74496077  0.47719140  0.41073684    -0.12200
C1587       C  0.75086008  0.46241946  0.38566188     0.01900
C1588       C  0.75839032  0.47339080  0.35213763    -0.00500
C1589       C  0.76140156  0.99941446  0.34532142    -0.12200
C1590       C  0.75456716  0.01369805  0.36993343     0.01800
H1591       H  0.73894904  0.46845422  0.43641974     0.14700
H1592       H  0.76574382  0.00744962  0.31923212     0.14700
C1593       C  0.75431575  0.03884497  0.35998944     0.36400
C1594       C  0.74876013  0.43606113  0.39497325     0.36300
N1595       N  0.75408726  0.05897568  0.35200960    -0.44000
N1596       N  0.74693408  0.41486094  0.40246784    -0.44000
C1597       C  0.80274422  0.07530886  0.06318618    -0.00400
C1598       C  0.82688876  0.07338645  0.05722599    -0.12200
C1599       C  0.85119669  0.08896355  0.07748209     0.01900
C1600       C  0.85129681  0.10624444  0.10485712    -0.00500
C1601       C  0.82662652  0.10675614  0.11206065    -0.12200
C1602       C  0.80268333  0.09191436  0.09133083     0.01800
H1603       H  0.82718753  0.06070922  0.03593365     0.14700
H1604       H  0.82642207  0.11970571  0.13309955     0.14700
C1605       C  0.77843819  0.09465726  0.09926579     0.36400
C1606       C  0.87574906  0.08671467  0.06977333     0.36300
N1607       N  0.75922699  0.09720024  0.10565481    -0.44000
N1608       N  0.89536098  0.08479424  0.06361203    -0.44000
C1609       C  0.59172282  0.40396838  0.43144282    -0.00400
C1610       C  0.61531590  0.41823039  0.40968767    -0.12200
C1611       C  0.63963953  0.44277046  0.42070327     0.01900
C1612       C  0.64065906  0.45349514  0.45406351    -0.00500
C1613       C  0.61620017  0.44096131  0.47448571    -0.12200
C1614       C  0.59182603  0.41639785  0.46347449     0.01800
H1615       H  0.61554614  0.40923171  0.38487658     0.14700
H1616       H  0.61630506  0.45012108  0.49931323     0.14700
C1617       C  0.56724999  0.40417875  0.48558788     0.36400
C1618       C  0.66313025  0.45655362  0.39710376     0.36300
N1619       N  0.54748056  0.39444467  0.50318872    -0.44000
N1620       N  0.68152896  0.46734852  0.37756183    -0.44000
C1621       C  0.57184931  0.16796095  0.10832643    -0.00400
C1622       C  0.55470722  0.17072603  0.08385775    -0.12200
C1623       C  0.53056068  0.17140125  0.09390607     0.01900
C1624       C  0.52287632  0.16882348  0.12893965    -0.00500
C1625       C  0.53862879  0.16409107  0.15322530    -0.12200
C1626       C  0.56292598  0.16355473  0.14335395     0.01800
H1627       H  0.56121851  0.17451252  0.05710988     0.14700
H1628       H  0.53212652  0.16118004  0.18000065     0.14700
C1629       C  0.57871851  0.15956900  0.17012850     0.36400
C1630       C  0.51494008  0.17641378  0.06793323     0.36300
N1631       N  0.59142159  0.15665141  0.19172535    -0.44000
N1632       N  0.50273585  0.18063499  0.04689625    -0.44000
C1633       C  0.61246986  0.24659482  0.02602277    -0.00400
C1634       C  0.61727006  0.24938262  0.49014829    -0.12200
C1635       C  0.60044952  0.25458197  0.46791454     0.01900
C1636       C  0.57765355  0.25685476  0.48083628    -0.00500
C1637       C  0.57214566  0.25346915  0.51646623    -0.12200
C1638       C  0.58932298  0.24860996  0.03906232     0.01800
H1639       H  0.63453376  0.24771875  0.47904437     0.14700
H1640       H  0.55535437  0.25622540  0.52696428     0.14700
C1641       C  0.58314750  0.24678216  0.07541792     0.36400
C1642       C  0.60736880  0.25802454  0.43168972     0.36300
N1643       N  0.57822775  0.24550510  0.10456839    -0.44000
N1644       N  0.61294625  0.26081122  0.40268074    -0.44000
C1645       C  0.72107884  0.30057621  0.14472188    -0.00400
C1646       C  0.72357992  0.29898740  0.18049234    -0.12200
C1647       C  0.72685689  0.32091222  0.20246913     0.01900
C1648       C  0.72807533  0.34529608  0.18856751    -0.00500
C1649       C  0.72681899  0.34707354  0.15246604    -0.12200
C1650       C  0.72331136  0.32517795  0.13079753     0.01800
H1651       H  0.72096715  0.27973593  0.19152328     0.14700
H1652       H  0.72819003  0.36558085  0.14077437     0.14700
C1653       C  0.72090450  0.32791914  0.09419874     0.36400
C1654       C  0.72795879  0.31725058  0.23902936     0.36300
N1655       N  0.71890594  0.33002314  0.06489515    -0.44000
N1656       N  0.72877221  0.31430690  0.26836518    -0.44000
C1657       C  0.67037479  0.13463580  0.04482251    -0.00400
C1658       C  0.66586067  0.11386693  0.06871598    -0.12200
C1659       C  0.66490007  0.08896716  0.05815494     0.01900
C1660       C  0.66927763  0.08491113  0.02298733    -0.00500
C1661       C  0.67162928  0.10498884  0.99890123    -0.12200
C1662       C  0.67209258  0.12960462  0.00952000     0.01800
H1663       H  0.66328310  0.11720964  0.09570838     0.14700
H1664       H  0.67501936  0.10248256  0.47192816     0.14700
C1665       C  0.67570533  0.15005950  0.48382127     0.36400
C1666       C  0.66003807  0.06835379  0.08422588     0.36300
N1667       N  0.67857074  0.16638302  0.46316506    -0.44000
N1668       N  0.65616532  0.05190309  0.10518940    -0.44000
C1669       C  0.86726247  0.22430191  0.27194585    -0.00400
C1670       C  0.86106429  0.21879210  0.23660772    -0.12200
C1671       C  0.87775454  0.21296489  0.21442718     0.01900
C1672       C  0.90201904  0.21326182  0.22684171    -0.00500
C1673       C  0.90886019  0.21948465  0.26182775    -0.12200
C1674       C  0.89163141  0.22454586  0.28440206     0.01800
H1675       H  0.84269605  0.21854512  0.22609920     0.14700
H1676       H  0.92675642  0.21866128  0.27205751     0.14700
C1677       C  0.89910134  0.22908224  0.32031640     0.36400
C1678       C  0.86900166  0.20583688  0.17902515     0.36300
N1679       N  0.90475382  0.23245615  0.34923655    -0.44000
N1680       N  0.86192410  0.19986325  0.15074401    -0.44000
C1681       C  0.90939063  0.30109339  0.35632401    -0.00400
C1682       C  0.91412694  0.29765984  0.39126854    -0.12200
C1683       C  0.93832762  0.29742285  0.40181059     0.01900
C1684       C  0.95910903  0.30154110  0.37756296    -0.00500
C1685       C  0.95575783  0.30724092  0.34319943    -0.12200
C1686       C  0.93113425  0.30681379  0.33233849     0.01800
H1687       H  0.89821715  0.29373641  0.41057278     0.14700
H1688       H  0.97205944  0.31108698  0.32448572     0.14700
C1689       C  0.92857892  0.31151076  0.29639953     0.36400
C1690       C  0.94150047  0.29322942  0.43777713     0.36300
N1691       N  0.92658371  0.31533061  0.26757693    -0.44000
N1692       N  0.94410376  0.28998154  0.46661038    -0.44000
C1693       C  0.77707895  0.25742431  0.44175338    -0.00400
C1694       C  0.78309581  0.25207482  0.47482861    -0.12200
C1695       C  0.76312633  0.24418386  0.50145736     0.01900
C1696       C  0.73634483  0.24137208  0.49511009    -0.00500
C1697       C  0.73024045  0.24633844  0.46201349    -0.12200
C1698       C  0.75011190  0.25425839  0.43550368     0.01800
H1699       H  0.80324401  0.25355843  0.47973025     0.14700
H1700       H  0.70968127  0.24379115  0.45672740     0.14700
C1701       C  0.74120906  0.25712746  0.40167830     0.36400
C1702       C  0.77017772  0.23751423  0.53445702     0.36300
N1703       N  0.73384951  0.25926086  0.37464219    -0.44000
N1704       N  0.77589012  0.23210201  0.56081516    -0.44000
C1705       C  0.70265421  0.21168270  0.19337587    -0.00400
C1706       C  0.69985179  0.22403677  0.22366096    -0.12200
C1707       C  0.71995608  0.23265904  0.24991939     0.01900
C1708       C  0.74398449  0.22969816  0.24585816    -0.00500
C1709       C  0.74646696  0.21659250  0.21630664    -0.12200
C1710       C  0.72594898  0.20707637  0.19048406     0.01800
H1711       H  0.68232356  0.22774111  0.22646698     0.14700
H1712       H  0.76447842  0.21363694  0.21347597     0.14700
C1713       C  0.73027980  0.19353587  0.16101070     0.36400
C1714       C  0.71590772  0.24563992  0.28009136     0.36300
N1715       N  0.73384874  0.18260784  0.13756870    -0.44000
N1716       N  0.71218527  0.25590648  0.30407939    -0.44000
C1717       C  0.74667743  0.12623416  0.44074467    -0.00400
C1718       C  0.74650040  0.12333627  0.40451948    -0.12200
C1719       C  0.75201724  0.14553759  0.38247558     0.01900
C1720       C  0.75815396  0.17171215  0.39606994    -0.00500
C1721       C  0.75679331  0.17454449  0.43196597    -0.12200
C1722       C  0.75091092  0.15206701  0.45432763     0.01800
H1723       H  0.74219897  0.10360459  0.39292065     0.14700
H1724       H  0.76175974  0.19473387  0.44264190     0.14700
C1725       C  0.74989727  0.15647940  0.49081603     0.36400
C1726       C  0.75134510  0.14099136  0.34576491     0.36300
N1727       N  0.74898033  0.16017105  0.02002410    -0.44000
N1728       N  0.75051985  0.13723822  0.31636525    -0.44000
C1729       C  0.80389376  0.38362223  0.27356259    -0.00400
C1730       C  0.80080999  0.36272650  0.25003358    -0.12200
C1731       C  0.80242421  0.33925875  0.26075468     0.01900
C1732       C  0.80799576  0.33659400  0.29548707    -0.00500
C1733       C  0.81265714  0.35804061  0.31876785    -0.12200
C1734       C  0.81061431  0.38137031  0.30824677     0.01800
H1735       H  0.79495737  0.36351580  0.22364610     0.14700
H1736       H  0.81722217  0.35621646  0.34541749     0.14700
C1737       C  0.81463192  0.40214883  0.33397296     0.36400
C1738       C  0.79631767  0.31719762  0.23603065     0.36300
N1739       N  0.81765497  0.41867294  0.35466183    -0.44000
N1740       N  0.79113784  0.29953723  0.21608247    -0.44000
Fe1741     Fe  0.83132220  0.27366571  0.79135912     1.65800
Fe1742     Fe  0.82967540  0.24317625  0.86587043     1.73200
Fe1743     Fe  0.77713415  0.25346605  0.84600057     1.54400
O1744       O  0.78631300  0.29098737  0.82084312    -0.81900
O1745       O  0.79642388  0.20314805  0.86206874    -0.80200
O1746       O  0.83059438  0.31001983  0.80183054    -0.84400
O1747       O  0.79209008  0.25645246  0.76493847    -0.79200
O1748       O  0.79687274  0.27709935  0.88801062    -0.81000
O1749       O  0.85174572  0.23465094  0.82633306    -0.83800
C1750       C  0.76599636  0.23945074  0.77265765     0.97000
C1751       C  0.80852247  0.31134432  0.80743500     1.04400
O1752       O  0.81203671  0.25577419  0.83334543    -1.12700
O1753       O  0.86163674  0.28357111  0.86989356    -0.75200
O1754       O  0.87225560  0.29119948  0.81464100    -0.78700
O1755       O  0.75763395  0.23120024  0.80309899    -0.79400
C1756       C  0.87992575  0.29308025  0.84620858     0.95900
O1757       O  0.83335819  0.23878138  0.77780844    -0.77300
O1758       O  0.80973702  0.24889315  0.90992662    -0.82500
C1759       C  0.77274497  0.19743706  0.87474974     0.98500
C1760       C  0.79718616  0.26298100  0.91299940     1.04400
O1761       O  0.76351873  0.21472124  0.87298306    -0.78200
C1762       C  0.84943307  0.23231232  0.79348437     1.02700
Fe1763     Fe  0.64942657  0.19880319  0.54229463     1.65800
Fe1764     Fe  0.65064505  0.22734688  0.61802102     1.73200
Fe1765     Fe  0.70371620  0.21845630  0.59557898     1.54400
O1766       O  0.69389584  0.18065622  0.56980809    -0.81900
O1767       O  0.68289773  0.26731920  0.61326215    -0.80200
O1768       O  0.64971690  0.16251723  0.55090271    -0.84400
O1769       O  0.68823339  0.21566746  0.51491359    -0.79200
O1770       O  0.68511546  0.19464375  0.63773399    -0.81000
O1771       O  0.62742870  0.23544837  0.58002418    -0.83800
C1772       C  0.71436902  0.23237815  0.52227191     0.97000
C1773       C  0.67133570  0.16061327  0.55648616     1.04400
O1774       O  0.66852345  0.21558280  0.58443759    -1.12700
O1775       O  0.61954983  0.18673273  0.62197941    -0.75200
O1776       O  0.60902919  0.18058715  0.56657529    -0.78700
O1777       O  0.72260309  0.24097577  0.55260030    -0.79400
C1778       C  0.60141629  0.17711848  0.59835631     0.95900
O1779       O  0.64791975  0.23427291  0.53152964    -0.77300
O1780       O  0.67163166  0.22210114  0.66092997    -0.82500
C1781       C  0.70705324  0.27407255  0.62474432     0.98500
C1782       C  0.68416238  0.20795257  0.66343466     1.04400
O1783       O  0.71702065  0.25732697  0.62292735    -0.78200
C1784       C  0.63061935  0.23916322  0.54738848     1.02700
Fe1785     Fe  0.70198803  0.04136559  0.95509910     1.65800
Fe1786     Fe  0.72935220  0.06755150  0.53159132     1.73200
Fe1787     Fe  0.72686084  0.00927587  0.50344318     1.54400
O1788       O  0.68806304  0.47939638  0.97546025    -0.81900
O1789       O  0.77052980  0.07889449  0.52773307    -0.80200
O1790       O  0.66462141  0.50196323  0.96524359    -0.84400
O1791       O  0.72009814  0.02208641  0.92533943    -0.79200
O1792       O  0.70065692  0.49782669  0.54569431    -0.81000
O1793       O  0.73668208  0.09973994  0.99470631    -0.83800
C1794       C  0.73983354  0.01663534  0.93078713     0.97000
C1795       C  0.66574720  0.47956977  0.96619934     1.04400
O1796       O  0.71969802  0.03944184  0.49646364    -1.12700
O1797       O  0.68797341  0.05569191  0.53534473    -0.75200
O1798       O  0.68230343  0.06143210  0.98043571    -0.78700
O1799       O  0.75069438  0.01939324  0.96015312    -0.79400
C1800       C  0.67848514  0.06470905  0.51232876     0.95900
O1801       O  0.73647195  0.07934273  0.94543386    -0.77300
O1802       O  0.72427863  0.03912907  0.57234478    -0.82500
C1803       C  0.77856241  0.06254925  0.53888304     0.98500
C1804       C  0.71307618  0.01223978  0.57294450     1.04400
O1805       O  0.76438461  0.03580078  0.53297035    -0.78200
C1806       C  0.74035412  0.10089364  0.96190898     1.02700
Fe1807     Fe  0.77433778  0.42984312  0.70506670     1.65800
Fe1808     Fe  0.74252963  0.40280561  0.77963217     1.73200
Fe1809     Fe  0.75175821  0.46425056  0.75395184     1.54400
O1810       O  0.79172915  0.99280416  0.72884837    -0.81900
O1811       O  0.70270459  0.39535578  0.77241459    -0.80200
O1812       O  0.81019908  0.46722235  0.71549372    -0.84400
O1813       O  0.75793597  0.45080105  0.67521101    -0.79200
O1814       O  0.77505777  0.47208764  0.79696339    -0.81000
O1815       O  0.73516664  0.37107498  0.74237333    -0.83800
C1816       C  0.73928601  0.45800126  0.68068948     0.97000
C1817       C  0.81080221  0.49049137  0.71740472     1.04400
O1818       O  0.75603597  0.43225042  0.74579785    -1.12700
O1819       O  0.78240867  0.41045262  0.78650787    -0.75200
O1820       O  0.79160482  0.40783972  0.73134746    -0.78700
O1821       O  0.72920644  0.45709956  0.71032490    -0.79400
C1822       C  0.79352585  0.40297001  0.76327488     0.95900
O1823       O  0.73934063  0.39267138  0.69313861    -0.77300
O1824       O  0.74798574  0.43083463  0.82117602    -0.82500
C1825       C  0.69630028  0.41280240  0.78454404     0.98500
C1826       C  0.76197015  0.45782650  0.82293324     1.04400
O1827       O  0.71313912  0.43954205  0.78201494    -0.78200
C1828       C  0.73362678  0.37059429  0.70947057     1.02700
Fe1829     Fe  0.54566673  0.32267572  0.87199429     1.65800
Fe1830     Fe  0.57390991  0.32603959  0.94888419     1.73200
Fe1831     Fe  0.51137793  0.27103872  0.92917586     1.54400
O1832       O  0.98271276  0.27964833  0.90344807    -0.81900
O1833       O  0.58246000  0.29423141  0.94739033    -0.80200
O1834       O  0.00836672  0.32173524  0.87849892    -0.84400
O1835       O  0.52423842  0.28294113  0.84705654    -0.79200
O1836       O  0.00726026  0.29168642  0.96997698    -0.81000
O1837       O  0.60477872  0.34829311  0.90972747    -0.83800
C1838       C  0.51401954  0.25714995  0.85604597     1.01200
C1839       C  0.98482766  0.30092653  0.88738506     1.04400
O1840       O  0.54371877  0.30592947  0.91585752    -1.12700
O1841       O  0.56424532  0.35717792  0.94997853    -0.75200
O1842       O  0.56731032  0.36415969  0.89342015    -0.78700
O1843       O  0.51334997  0.24979681  0.88705281    -0.79400
C1844       C  0.57175749  0.37365784  0.92443689     0.95900
O1845       O  0.58304573  0.32438116  0.86312249    -0.77300
O1846       O  0.54822471  0.30625449  0.99316001    -0.82500
C1847       C  0.56504579  0.27018877  0.95969478     0.98500
C1848       C  0.52136702  0.29261012  0.99554182     1.04400
O1849       O  0.53803655  0.25943795  0.95714177    -0.78200
C1850       C  0.60488230  0.34397445  0.87733427     1.02700
Fe1851     Fe  0.93710116  0.14450311  0.62270415     1.65800
Fe1852     Fe  0.90694099  0.14401003  0.69774290     1.73200
Fe1853     Fe  0.96910918  0.19872766  0.67743122     1.54400
O1854       O  0.49863653  0.19091154  0.65227765    -0.81900
O1855       O  0.89841540  0.17567969  0.69443983    -0.80200
O1856       O  0.97396873  0.14628111  0.63438240    -0.84400
O1857       O  0.95933645  0.18377001  0.59663963    -0.79200
O1858       O  0.97414957  0.17986475  0.71895671    -0.81000
O1859       O  0.87688469  0.12203584  0.65802413    -0.83800
C1860       C  0.96785237  0.20967460  0.60411771     0.97000
C1861       C  0.49714821  0.16865155  0.63980459     1.04400
O1862       O  0.93725364  0.16302627  0.66490099    -1.12700
O1863       O  0.91585865  0.11239558  0.70099927    -0.75200
O1864       O  0.91449927  0.10377098  0.64500568    -0.78700
O1865       O  0.96613333  0.21766977  0.63426586    -0.79400
C1866       C  0.90879149  0.09517528  0.67618684     0.95900
O1867       O  0.89963025  0.14062460  0.60879989    -0.77300
O1868       O  0.93264136  0.16436360  0.74199601    -0.82500
C1869       C  0.91530290  0.19985135  0.70664528     0.98500
C1870       C  0.95953102  0.17735002  0.74493778     1.04400
O1871       O  0.94230453  0.21056756  0.70494931    -0.78200
C1872       C  0.87716826  0.12435373  0.62516319     1.02700
C1873       C  0.97456023  0.19411385  0.77632859    -0.00400
C1874       C  0.95887700  0.19395777  0.80511128    -0.12200
C1875       C  0.97174289  0.21355042  0.83197901     0.01900
C1876       C  0.00065168  0.23452757  0.82986746    -0.00500
C1877       C  0.01665855  0.23406221  0.80217296    -0.12200
C1878       C  0.00427159  0.21379962  0.77605582     0.01800
H1879       H  0.93633971  0.17913723  0.80618407     0.14700
H1880       H  0.53901346  0.24964328  0.80096470     0.14700
C1881       C  0.02292074  0.21457807  0.74909438     0.36400
C1882       C  0.95455797  0.21238907  0.86088776     0.36300
N1883       N  0.03796652  0.21526003  0.72762771    -0.44000
N1884       N  0.94084668  0.21127510  0.88422579    -0.44000
C1885       C  0.50645314  0.27259743  0.52440052    -0.00400
C1886       C  0.51965475  0.27702461  0.55645662    -0.12200
C1887       C  0.50732250  0.25695340  0.58282861     0.01900
C1888       C  0.98134631  0.23160790  0.57724477    -0.00500
C1889       C  0.96832694  0.22697584  0.54530384    -0.12200
C1890       C  0.98029309  0.24704277  0.51912583     0.01800
H1891       H  0.53989931  0.29596996  0.56074479     0.14700
H1892       H  0.94857483  0.20749953  0.54078457     0.14700
C1893       C  0.96545620  0.23972041  0.98673854     0.36400
C1894       C  0.52255044  0.26230042  0.61474665     0.36300
N1895       N  0.95325022  0.23349210  0.96101688    -0.44000
N1896       N  0.53492000  0.26672874  0.64021523    -0.44000
C1897       C  0.67110684  0.40080914  0.80712183    -0.00400
C1898       C  0.67536633  0.40486435  0.84280690    -0.12200
C1899       C  0.65463787  0.38667295  0.86643045     0.01900
C1900       C  0.62876153  0.36382686  0.85437037    -0.00500
C1901       C  0.62417856  0.36107592  0.81846836    -0.12200
C1902       C  0.64489457  0.37915608  0.79511910     0.01800
H1903       H  0.69572293  0.42114587  0.85228553     0.14700
H1904       H  0.60427172  0.34454083  0.80822556     0.14700
C1905       C  0.63888611  0.37489688  0.75875637     0.36400
C1906       C  0.66117099  0.39152957  0.90260119     0.36300
N1907       N  0.63385451  0.37154356  0.72966622    -0.44000
N1908       N  0.66666079  0.39572948  0.93152650    -0.44000
C1909       C  0.83854067  0.01607640  0.70579818    -0.00400
C1910       C  0.86275207  0.02832674  0.72642999    -0.12200
C1911       C  0.88735861  0.05288989  0.71579544     0.01900
C1912       C  0.88809865  0.06520457  0.68366095    -0.00500
C1913       C  0.86458096  0.05139019  0.66192837    -0.12200
C1914       C  0.83987014  0.02724682  0.67282010     0.01800
H1915       H  0.86214414  0.01920188  0.75128337     0.14700
H1916       H  0.86463192  0.06063621  0.63740250     0.14700
C1917       C  0.81601650  0.01482946  0.64982734     0.36400
C1918       C  0.91130315  0.06552093  0.73865855     0.36300
N1919       N  0.79627812  0.50341180  0.62923566    -0.44000
N1920       N  0.93052194  0.07573252  0.75694138    -0.44000
C1921       C  0.73048754  0.47036006  0.65297337    -0.00400
C1922       C  0.72598458  0.99255748  0.66247967    -0.12200
C1923       C  0.71924873  0.00610663  0.63684405     0.01900
C1924       C  0.71716964  0.99739048  0.60235938    -0.00500
C1925       C  0.71721176  0.47281790  0.59428079    -0.12200
C1926       C  0.72455177  0.45947044  0.61935553     0.01800
H1927       H  0.72785714  0.99980427  0.68884199     0.14700
H1928       H  0.71341484  0.46438160  0.56833998     0.14700
C1929       C  0.72507786  0.43424809  0.61017236     0.36400
C1930       C  0.71419787  0.02853468  0.64664086     0.36300
N1931       N  0.72530372  0.41392449  0.60286044    -0.44000
N1932       N  0.71002717  0.04644500  0.65450520    -0.44000
C1933       C  0.74550157  0.50243704  0.90285909    -0.00400
C1934       C  0.74495829  0.47719101  0.91073709    -0.12200
C1935       C  0.75085676  0.46241868  0.88566179     0.01900
C1936       C  0.75838638  0.47338979  0.85213740    -0.00500
C1937       C  0.76141078  0.99941949  0.84532615    -0.12200
C1938       C  0.75457701  0.01370286  0.86993921     0.01800
H1939       H  0.73894690  0.46845399  0.93642015     0.14700
H1940       H  0.76575431  0.00745615  0.81923750     0.14700
C1941       C  0.75432939  0.03885223  0.85999772     0.36400
C1942       C  0.74875717  0.43606049  0.89497304     0.36300
N1943       N  0.75410427  0.05898515  0.85202024    -0.44000
N1944       N  0.74693162  0.41486049  0.90246748    -0.44000
C1945       C  0.80274791  0.07531269  0.56317871    -0.00400
C1946       C  0.82689068  0.07338617  0.55722283    -0.12200
C1947       C  0.85119822  0.08896229  0.57748001     0.01900
C1948       C  0.85129956  0.10624614  0.60485214    -0.00500
C1949       C  0.82663106  0.10676243  0.61205111    -0.12200
C1950       C  0.80268843  0.09192168  0.59132017     0.01800
H1951       H  0.82718839  0.06070617  0.53593313     0.14700
H1952       H  0.82642763  0.11971450  0.63308758     0.14700
C1953       C  0.77844496  0.09466840  0.59925146     0.36400
C1954       C  0.87574880  0.08670919  0.56977544     0.36300
N1955       N  0.75923495  0.09721413  0.60563745    -0.44000
N1956       N  0.89535908  0.08478509  0.56361740    -0.44000
C1957       C  0.59172426  0.40396599  0.93144354    -0.00400
C1958       C  0.61531739  0.41822900  0.90968873    -0.12200
C1959       C  0.63964083  0.44276900  0.92070524     0.01900
C1960       C  0.64066018  0.45349273  0.95406610    -0.00500
C1961       C  0.61620129  0.44095768  0.97448824    -0.12200
C1962       C  0.59182741  0.41639430  0.96347619     0.01800
H1963       H  0.61554780  0.40923118  0.88487709     0.14700
H1964       H  0.61630596  0.45011646  0.99931637     0.14700
C1965       C  0.56725175  0.40417379  0.98559025     0.36400
C1966       C  0.66313140  0.45655312  0.89710576     0.36300
N1967       N  0.54748271  0.39443847  0.00319179    -0.44000
N1968       N  0.68152980  0.46734861  0.87756353    -0.44000
C1969       C  0.57184949  0.16796493  0.60832856    -0.00400
C1970       C  0.55470848  0.17073110  0.58385920    -0.12200
C1971       C  0.53056198  0.17140676  0.59390647     0.01900
C1972       C  0.52287637  0.16882800  0.62893960    -0.00500
C1973       C  0.53862783  0.16409475  0.65322590    -0.12200
C1974       C  0.56292523  0.16355839  0.64335567     0.01800
H1975       H  0.56122065  0.17451814  0.55711161     0.14700
H1976       H  0.53212456  0.16118301  0.68000093     0.14700
C1977       C  0.57871684  0.15957204  0.67013084     0.36400
C1978       C  0.51494269  0.17642066  0.56793314     0.36300
N1979       N  0.59141900  0.15665388  0.69172839    -0.44000
N1980       N  0.50273955  0.18064307  0.54689586    -0.44000
C1981       C  0.61246863  0.24659534  0.52602224    -0.00400
C1982       C  0.61727301  0.24938373  0.99014919    -0.12200
C1983       C  0.60045266  0.25458266  0.96791482     0.01900
C1984       C  0.57765529  0.25685342  0.98083560    -0.00500
C1985       C  0.57214587  0.25346647  0.01646515    -0.12200
C1986       C  0.58932289  0.24861212  0.53906272     0.01800
H1987       H  0.63453777  0.24772138  0.97904610     0.14700
H1988       H  0.55535362  0.25622141  0.02696237     0.14700
C1989       C  0.58314866  0.24678521  0.57541861     0.36400
C1990       C  0.60737372  0.25802705  0.93169047     0.36300
N1991       N  0.57823000  0.24550870  0.60456935    -0.44000
N1992       N  0.61295266  0.26081527  0.90268190    -0.44000
C1993       C  0.72108147  0.30057907  0.64471794    -0.00400
C1994       C  0.72358655  0.29899095  0.68048775    -0.12200
C1995       C  0.72686312  0.32091498  0.70246579     0.01900
C1996       C  0.72807679  0.34529717  0.68856595    -0.00500
C1997       C  0.72681694  0.34707421  0.65246491    -0.12200
C1998       C  0.72331015  0.32517963  0.63079523     0.01800
H1999       H  0.72097717  0.27974043  0.69151756     0.14700
H2000       H  0.72818447  0.36558037  0.64077454     0.14700
C2001       C  0.72089989  0.32792050  0.59419708     0.36400
C2002       C  0.72797002  0.31725421  0.73902540     0.36300
N2003       N  0.71889858  0.33002427  0.56489404    -0.44000
N2004       N  0.72878752  0.31431064  0.76836059    -0.44000
C2005       C  0.67037376  0.13463563  0.54482538    -0.00400
C2006       C  0.66586016  0.11386711  0.56871922    -0.12200
C2007       C  0.66490051  0.08896767  0.55815865     0.01900
C2008       C  0.66927783  0.08491133  0.52299113    -0.00500
C2009       C  0.67162897  0.10498864  0.49890469    -0.12200
C2010       C  0.67209203  0.12960438  0.50952302     0.01800
H2011       H  0.66328266  0.11721002  0.59571153     0.14700
H2012       H  0.67501948  0.10248284  0.97192461     0.14700
C2013       C  0.67570492  0.15005955  0.98381851     0.36400
C2014       C  0.66004003  0.06835502  0.58422992     0.36300
N2015       N  0.67856930  0.16638288  0.96316257    -0.44000
N2016       N  0.65616864  0.05190488  0.60519362    -0.44000
C2017       C  0.86726413  0.22430363  0.77194580    -0.00400
C2018       C  0.86106665  0.21879505  0.73660735    -0.12200
C2019       C  0.87775615  0.21296653  0.71442704     0.01900
C2020       C  0.90201952  0.21326145  0.72684201    -0.00500
C2021       C  0.90885995  0.21948296  0.76182843    -0.12200
C2022       C  0.89163159  0.22454496  0.78440256     0.01800
H2023       H  0.84269945  0.21854990  0.72609846     0.14700
H2024       H  0.92675521  0.21865805  0.77205851     0.14700
C2025       C  0.89910024  0.22907949  0.82031731     0.36400
C2026       C  0.86900364  0.20583933  0.67902482     0.36300
N2027       N  0.90475117  0.23245201  0.84923793    -0.44000
N2028       N  0.86192627  0.19986628  0.65074353    -0.44000
C2029       C  0.90939371  0.30109697  0.85632699    -0.00400
C2030       C  0.91413157  0.29766578  0.89127173    -0.12200
C2031       C  0.93833243  0.29742876  0.90181306     0.01900
C2032       C  0.95911276  0.30154548  0.87756451    -0.00500
C2033       C  0.95576039  0.30724377  0.84320084    -0.12200
C2034       C  0.93113637  0.30681591  0.83234050     0.01800
H2035       H  0.89822253  0.29374350  0.91057659     0.14700
H2036       H  0.97206109  0.31108836  0.82448636     0.14700
C2037       C  0.92857902  0.31150907  0.79640083     0.36400
C2038       C  0.94150607  0.29323567  0.93777950     0.36300
N2039       N  0.92658213  0.31532554  0.76757754    -0.44000
N2040       N  0.94410990  0.28998771  0.96661256    -0.44000
C2041       C  0.77708132  0.25742514  0.94175594    -0.00400
C2042       C  0.78309586  0.25207094  0.97483005    -0.12200
C2043       C  0.76312598  0.24417997  0.00145833     0.01900
C2044       C  0.73634653  0.24137306  0.99511177    -0.00500
C2045       C  0.73024443  0.24634439  0.96201646    -0.12200
C2046       C  0.75011628  0.25426444  0.93550710     0.01800
H2047       H  0.80324236  0.25355061  0.97973103     0.14700
H2048       H  0.70968678  0.24380097  0.95673108     0.14700
C2049       C  0.74121574  0.25713947  0.90168291     0.36400
C2050       C  0.77017434  0.23750488  0.03445649     0.36300
N2051       N  0.73385829  0.25927802  0.87464773    -0.44000
N2052       N  0.77588421  0.23208816  0.06081340    -0.44000
C2053       C  0.70265969  0.21169030  0.69337435    -0.00400
C2054       C  0.69985330  0.22403807  0.72366274    -0.12200
C2055       C  0.71995672  0.23265936  0.74992221     0.01900
C2056       C  0.74398809  0.22970359  0.74585901    -0.00500
C2057       C  0.74647546  0.21660574  0.71630292    -0.12200
C2058       C  0.72595892  0.20709125  0.69047874     0.01800
H2059       H  0.68232217  0.22773773  0.72647095     0.14700
H2060       H  0.76448996  0.21365528  0.71346963     0.14700
C2061       C  0.73029643  0.19356112  0.66099938     0.36400
C2062       C  0.71590442  0.24563446  0.78009715     0.36300
N2063       N  0.73387101  0.18264157  0.63755255    -0.44000
N2064       N  0.71217874  0.25589661  0.80408727    -0.44000
C2065       C  0.74667969  0.12623503  0.94074687    -0.00400
C2066       C  0.74650116  0.12333650  0.90452165    -0.12200
C2067       C  0.75201770  0.14553761  0.88247736     0.01900
C2068       C  0.75815565  0.17171270  0.89607129    -0.00500
C2069       C  0.75679638  0.17454563  0.93196744    -0.12200
C2070       C  0.75091431  0.15206839  0.95432948     0.01800
H2071       H  0.74219856  0.10360433  0.89292307     0.14700
H2072       H  0.76176365  0.19473533  0.94264316     0.14700
C2073       C  0.74990248  0.15648164  0.99081794     0.36400
C2074       C  0.75134345  0.14099038  0.84576675     0.36300
N2075       N  0.74897360  0.16016804  0.52002213    -0.44000
N2076       N  0.75051631  0.13723620  0.81636720    -0.44000
C2077       C  0.80389298  0.38362347  0.77356735    -0.00400
C2078       C  0.80081325  0.36272963  0.75003782    -0.12200
C2079       C  0.80242845  0.33926244  0.76075909     0.01900
C2080       C  0.80799708  0.33659645  0.79549228    -0.00500
C2081       C  0.81265444  0.35804130  0.81877385    -0.12200
C2082       C  0.81061072  0.38137046  0.80825251     0.01800
H2083       H  0.79496285  0.36351972  0.72364952     0.14700
H2084       H  0.81721715  0.35621622  0.84542416     0.14700
C2085       C  0.81462476  0.40214738  0.83397927     0.36400
C2086       C  0.79632525  0.31720274  0.73603422     0.36300
N2087       N  0.81764502  0.41867028  0.85466847    -0.44000
N2088       N  0.79114794  0.29954344  0.71608532    -0.44000
Fe2089     Fe  0.83102695  0.77327717  0.29297829     1.65800
Fe2090     Fe  0.82829629  0.74236226  0.36741612     1.73200
Fe2091     Fe  0.77604034  0.75280278  0.34590054     1.54400
O2092       O  0.78584690  0.79043858  0.32043948    -0.81900
O2093       O  0.79487139  0.70269226  0.36214045    -0.80200
O2094       O  0.83066947  0.80970457  0.30333281    -0.84400
O2095       O  0.79237470  0.75681107  0.26546984    -0.79200
O2096       O  0.79461376  0.77610209  0.38850648    -0.81000
O2097       O  0.85065380  0.73380417  0.32852623    -0.83800
C2098       C  0.76624003  0.73949974  0.27248958     0.97000
C2099       C  0.80843146  0.81091446  0.30781958     1.04400
O2100       O  0.81139797  0.75561646  0.33470447    -1.12700
O2101       O  0.86118135  0.78232124  0.37248882    -0.75200
O2102       O  0.87151929  0.79034858  0.31705124    -0.78700
O2103       O  0.75765188  0.73049518  0.30261500    -0.79400
C2104       C  0.87933685  0.79226738  0.34856412     0.95900
O2105       O  0.83219382  0.73797312  0.28009335    -0.77300
O2106       O  0.80765413  0.74808279  0.41080246    -0.82500
C2107       C  0.77099342  0.69670630  0.37428358     0.98500
C2108       C  0.79489683  0.76203737  0.41360882     1.04400
O2109       O  0.76182525  0.71402104  0.37279836    -0.78200
C2110       C  0.84815213  0.73139178  0.29574490     1.02700
Fe2111     Fe  0.64724733  0.69721042  0.04397527     1.65800
Fe2112     Fe  0.64993596  0.72825273  0.11846683     1.73200
Fe2113     Fe  0.70215740  0.71794552  0.09628190     1.54400
O2114       O  0.69204895  0.67983150  0.07077838    -0.81900
O2115       O  0.68279740  0.76806292  0.11294441    -0.80200
O2116       O  0.64713704  0.66097935  0.05485085    -0.84400
O2117       O  0.68585783  0.71323171  0.01613359    -0.79200
O2118       O  0.68352086  0.69471952  0.13878770    -0.81000
O2119       O  0.62700250  0.73607853  0.07972271    -0.83800
C2120       C  0.71200456  0.73054685  0.02289262     0.97000
C2121       C  0.66906119  0.65934384  0.05889404     1.04400
O2122       O  0.66702495  0.71529053  0.08532891    -1.12700
O2123       O  0.61810548  0.68801979  0.12368528    -0.75200
O2124       O  0.60704219  0.68020728  0.06854150    -0.78700
O2125       O  0.72058592  0.73990574  0.05290566    -0.79400
C2126       C  0.59971946  0.67789415  0.10035821     0.95900
O2127       O  0.64598905  0.73235423  0.03112096    -0.77300
O2128       O  0.67097888  0.72309806  0.16161082    -0.82500
C2129       C  0.70659652  0.77426376  0.12516024     0.98500
C2130       C  0.68343127  0.70883900  0.16412325     1.04400
O2131       O  0.71609574  0.75713107  0.12334648    -0.78200
C2132       C  0.62947788  0.73840107  0.04684788     1.02700
Fe2133     Fe  0.69914357  0.54017503  0.45503824     1.65800
Fe2134     Fe  0.72762142  0.56725920  0.03084350     1.73200
Fe2135     Fe  0.72495995  0.50883935  0.00289366     1.54400
O2136       O  0.68999225  0.98007629  0.47577072    -0.81900
O2137       O  0.76882306  0.57858655  0.02639098    -0.80200
O2138       O  0.66721980  0.00311768  0.46396368    -0.84400
O2139       O  0.71714744  0.52078685  0.42503117    -0.79200
O2140       O  0.70239770  0.99794423  0.04613059    -0.81000
O2141       O  0.73460854  0.59903563  0.49363933    -0.83800
C2142       C  0.73718225  0.51566514  0.43009373     0.97000
C2143       C  0.66799726  0.98055809  0.46573076     1.04400
O2144       O  0.71763811  0.53890603  0.99595113    -1.12700
O2145       O  0.68629270  0.55569171  0.03544251    -0.75200
O2146       O  0.67972316  0.56046209  0.48046578    -0.78700
O2147       O  0.74842544  0.51868502  0.45927713    -0.79400
C2148       C  0.67622684  0.56407342  0.01235017     0.95900
O2149       O  0.73325404  0.57806293  0.44430718    -0.77300
O2150       O  0.72286523  0.53904430  0.07170507    -0.82500
C2151       C  0.77691239  0.56235642  0.03778064     0.98500
C2152       C  0.71156435  0.51214807  0.07242180     1.04400
O2153       O  0.76267817  0.53556441  0.03214011    -0.78200
C2154       C  0.73787981  0.59987090  0.46078872     1.02700
Fe2155     Fe  0.77543126  0.93003073  0.20603353     1.65800
Fe2156     Fe  0.74503447  0.90358151  0.28136931     1.73200
Fe2157     Fe  0.75413602  0.96509775  0.25580428     1.54400
O2158       O  0.78946851  0.49221650  0.22738839    -0.81900
O2159       O  0.70518659  0.89610715  0.27525958    -0.80200
O2160       O  0.81168276  0.96733094  0.21539068    -0.84400
O2161       O  0.75885247  0.95104726  0.17676592    -0.79200
O2162       O  0.77790599  0.97262865  0.29834919    -0.81000
O2163       O  0.73702920  0.87152892  0.24418428    -0.83800
C2164       C  0.74061576  0.95874542  0.18249730     0.97000
C2165       C  0.81267895  0.99076249  0.21796383     1.04400
O2166       O  0.75793203  0.93285413  0.24726142    -1.12700
O2167       O  0.78508197  0.91149308  0.28710655    -0.75200
O2168       O  0.79294033  0.90804510  0.23170753    -0.78700
O2169       O  0.73124350  0.95851975  0.21242087    -0.79400
C2170       C  0.79550078  0.90352791  0.26356121     0.95900
O2171       O  0.73996973  0.89284855  0.19514671    -0.77300
O2172       O  0.75089110  0.93161662  0.32297160    -0.82500
C2173       C  0.69875242  0.91366037  0.28698815     0.98500
C2174       C  0.76493241  0.95858448  0.32446679     1.04400
O2175       O  0.71559937  0.94042377  0.28427110    -0.78200
C2176       C  0.73474002  0.87085122  0.21134951     1.02700
Fe2177     Fe  0.54616224  0.82390794  0.37245531     1.65800
Fe2178     Fe  0.57404169  0.82622495  0.44930724     1.73200
Fe2179     Fe  0.51157446  0.77162120  0.42881393     1.54400
O2180       O  0.98306530  0.78049212  0.40339996    -0.81900
O2181       O  0.58247551  0.79436454  0.44725470    -0.80200
O2182       O  0.00883780  0.82294924  0.37937223    -0.84400
O2183       O  0.52452831  0.78419530  0.34689580    -0.79200
O2184       O  0.00721499  0.79187145  0.46989075    -0.81000
O2185       O  0.60519992  0.84886825  0.41045286    -0.83800
C2186       C  0.51419780  0.75826915  0.35554829     1.01200
C2187       C  0.98526868  0.80204806  0.38801575     1.04400
O2188       O  0.54405374  0.80659411  0.41596931    -1.12700
O2189       O  0.56449161  0.85738551  0.45077852    -0.75200
O2190       O  0.56807203  0.86535257  0.39452289    -0.78700
O2191       O  0.51372310  0.75074336  0.38642730    -0.79400
C2192       C  0.57258368  0.87441142  0.42576836     0.95900
O2193       O  0.58363026  0.82582102  0.36327193    -0.77300
O2194       O  0.54796089  0.80598982  0.49340883    -0.82500
C2195       C  0.56487969  0.77018991  0.45904923     0.98500
C2196       C  0.52106568  0.79261564  0.49563056     1.04400
O2197       O  0.53792853  0.75965382  0.45648942    -0.78200
C2198       C  0.60548967  0.84505347  0.37793946     1.02700
Fe2199     Fe  0.93448907  0.64490335  0.12271682     1.65800
Fe2200     Fe  0.90486094  0.64361489  0.19835846     1.73200
Fe2201     Fe  0.96672424  0.69874338  0.17784848     1.54400
O2202       O  0.49617709  0.69101955  0.15262558    -0.81900
O2203       O  0.89600836  0.67491192  0.19547723    -0.80200
O2204       O  0.97145664  0.64667055  0.13363402    -0.84400
O2205       O  0.95659293  0.68432040  0.09688477    -0.79200
O2206       O  0.97190915  0.67963997  0.21902303    -0.81000
O2207       O  0.87451029  0.62153895  0.15867483    -0.83800
C2208       C  0.96531883  0.71022254  0.10461782     0.97000
C2209       C  0.49464160  0.66885316  0.13978964     1.04400
O2210       O  0.93490946  0.66307210  0.16526566    -1.12700
O2211       O  0.91428827  0.61235494  0.20086894    -0.75200
O2212       O  0.91208355  0.60397211  0.14476627    -0.78700
O2213       O  0.96375928  0.71806075  0.13492054    -0.79400
C2214       C  0.90681202  0.59521107  0.17593195     0.95900
O2215       O  0.89694880  0.64125412  0.10970329    -0.77300
O2216       O  0.93073052  0.66415419  0.24271540    -0.82500
C2217       C  0.91280051  0.69920118  0.20740063     0.98500
C2218       C  0.95767035  0.67740463  0.24524227     1.04400
O2219       O  0.93981895  0.71021753  0.20550875    -0.78200
C2220       C  0.87462290  0.62436433  0.12587264     1.02700
C2221       C  0.97320702  0.69471520  0.27623175    -0.00400
C2222       C  0.95807449  0.69475017  0.30549860    -0.12200
C2223       C  0.97141332  0.71460417  0.33206952     0.01900
C2224       C  0.00030774  0.73561627  0.32931326    -0.00500
C2225       C  0.01577573  0.73498464  0.30109745    -0.12200
C2226       C  0.00289216  0.71461122  0.27512994     0.01800
H2227       H  0.93557696  0.67988010  0.30717887     0.14700
H2228       H  0.53809726  0.75058125  0.29929601     0.14700
C2229       C  0.02099464  0.71568604  0.24727663     0.36400
C2230       C  0.95464416  0.71376533  0.36128254     0.36300
N2231       N  0.03557788  0.71667464  0.22501824    -0.44000
N2232       N  0.94122885  0.71297331  0.38479018    -0.44000
C2233       C  0.50558943  0.77297658  0.02475241    -0.00400
C2234       C  0.51869466  0.77692071  0.05682248    -0.12200
C2235       C  0.50569486  0.75702513  0.08332007     0.01900
C2236       C  0.97911877  0.73233161  0.07789811    -0.00500
C2237       C  0.96605639  0.72829048  0.04606976    -0.12200
C2238       C  0.97870356  0.74816590  0.01975219     0.01800
H2239       H  0.53939113  0.79528037  0.06100159     0.14700
H2240       H  0.94583163  0.70932869  0.04166216     0.14700
C2241       C  0.96379542  0.74126597  0.48741933     0.36400
C2242       C  0.52087093  0.76170795  0.11516107     0.36300
N2243       N  0.95158830  0.73540210  0.46170400    -0.44000
N2244       N  0.53314960  0.76551097  0.14059386    -0.44000
C2245       C  0.67293105  0.90157886  0.30856580    -0.00400
C2246       C  0.67586054  0.90703610  0.34414982    -0.12200
C2247       C  0.65473871  0.88898744  0.36757241     0.01900
C2248       C  0.62980918  0.86490378  0.35538633    -0.00500
C2249       C  0.62654979  0.86072729  0.31944169    -0.12200
C2250       C  0.64762398  0.87858807  0.29634042     0.01800
H2251       H  0.69557129  0.92429384  0.35390931     0.14700
H2252       H  0.60748242  0.84309423  0.30896530     0.14700
C2253       C  0.64316503  0.87237984  0.25998782     0.36400
C2254       C  0.65996124  0.89531166  0.40377633     0.36300
N2255       N  0.63954989  0.86741197  0.23087474    -0.44000
N2256       N  0.66443341  0.90064483  0.43272736    -0.44000
C2257       C  0.83661575  0.51592197  0.20538945    -0.00400
C2258       C  0.86058795  0.52851624  0.22640110    -0.12200
C2259       C  0.88520928  0.55306935  0.21580372     0.01900
C2260       C  0.88614401  0.56519768  0.18344158    -0.00500
C2261       C  0.86286830  0.55104935  0.16138136    -0.12200
C2262       C  0.83821035  0.52675581  0.17213097     0.01800
H2263       H  0.85981703  0.51958596  0.25144623     0.14700
H2264       H  0.86308631  0.56004428  0.13659612     0.14700
C2265       C  0.81473957  0.51364154  0.14860074     0.36400
C2266       C  0.90901654  0.56579090  0.23887771     0.36300
N2267       N  0.79726420  0.00530067  0.13085045    -0.44000
N2268       N  0.92814082  0.57604960  0.25730263    -0.44000
C2269       C  0.73135305  0.97057773  0.15444049    -0.00400
C2270       C  0.72798490  0.49408711  0.16093776    -0.12200
C2271       C  0.72074675  0.50755288  0.13580978     0.01900
C2272       C  0.71569884  0.49725997  0.10179460    -0.00500
C2273       C  0.72152896  0.97470946  0.09459395    -0.12200
C2274       C  0.72877116  0.96154511  0.12002407     0.01800
H2275       H  0.73216356  0.50247898  0.18691487     0.14700
H2276       H  0.72030298  0.96777246  0.06817187     0.14700
C2277       C  0.73343343  0.93886614  0.11004124     0.36400
C2278       C  0.71777942  0.53119878  0.14598064     0.36300
N2279       N  0.73725109  0.92073673  0.10209671    -0.44000
N2280       N  0.71511223  0.54991612  0.15454640    -0.44000
C2281       C  0.74827278  0.00342562  0.40370595    -0.00400
C2282       C  0.74895022  0.97889527  0.41216312    -0.12200
C2283       C  0.75493191  0.96407158  0.38728156     0.01900
C2284       C  0.76130012  0.97430041  0.35336415    -0.00500
C2285       C  0.75967601  0.49919033  0.34471665    -0.12200
C2286       C  0.75290598  0.51343509  0.36948602     0.01800
H2287       H  0.74384573  0.97072841  0.43817808     0.14700
H2288       H  0.76489633  0.50784811  0.31894547     0.14700
C2289       C  0.75376966  0.53923832  0.36007990     0.36400
C2290       C  0.75424992  0.93850232  0.39724345     0.36300
N2291       N  0.75444432  0.55988824  0.35245371    -0.44000
N2292       N  0.75360257  0.91796933  0.40536490    -0.44000
C2293       C  0.80098392  0.57524011  0.06235218    -0.00400
C2294       C  0.82564998  0.57428271  0.05622269    -0.12200
C2295       C  0.84964807  0.58983036  0.07703631     0.01900
C2296       C  0.84894705  0.60607150  0.10519379    -0.00500
C2297       C  0.82383697  0.60572632  0.11239096    -0.12200
C2298       C  0.80024467  0.59105116  0.09101606     0.01800
H2299       H  0.82658183  0.56238636  0.03441597     0.14700
H2300       H  0.82305665  0.61803592  0.13383579     0.14700
C2301       C  0.77577960  0.59347981  0.09858198     0.36400
C2302       C  0.87478556  0.58869977  0.06906784     0.36300
N2303       N  0.75645575  0.59592579  0.10457333    -0.44000
N2304       N  0.89493571  0.58777807  0.06277613    -0.44000
C2305       C  0.59285212  0.90467307  0.43370438    -0.00400
C2306       C  0.61415279  0.92088740  0.40958289    -0.12200
C2307       C  0.63873385  0.94577243  0.41954440     0.01900
C2308       C  0.64260418  0.95446102  0.45430877    -0.00500
C2309       C  0.62044750  0.93986883  0.47765217    -0.12200
C2310       C  0.59558035  0.91545056  0.46761969     0.01800
H2311       H  0.61247118  0.91333090  0.38337842     0.14700
H2312       H  0.62262610  0.94754940  0.50387984     0.14700
C2313       C  0.57330314  0.90179905  0.49285411     0.36400
C2314       C  0.65978347  0.96190992  0.39373228     0.36300
N2315       N  0.55545484  0.89098014  0.51310335    -0.44000
N2316       N  0.67643322  0.97490312  0.37287440    -0.44000
C2317       C  0.57016771  0.66895623  0.11045218    -0.00400
C2318       C  0.55212104  0.66934936  0.08526129    -0.12200
C2319       C  0.52749118  0.66941978  0.09456349     0.01900
C2320       C  0.52044982  0.66896528  0.12956978    -0.00500
C2321       C  0.53724176  0.66681790  0.15474428    -0.12200
C2322       C  0.56179898  0.66653781  0.14562587     0.01800
H2323       H  0.55812160  0.67153964  0.05835019     0.14700
H2324       H  0.53123675  0.66554560  0.18159279     0.14700
C2325       C  0.57825061  0.66464737  0.17325198     0.36400
C2326       C  0.51060800  0.67168766  0.06782272     0.36300
N2327       N  0.59141410  0.66332347  0.19552360    -0.44000
N2328       N  0.49713224  0.67363178  0.04644339    -0.44000
C2329       C  0.61144415  0.74573723  0.02518298    -0.00400
C2330       C  0.61658393  0.74878976  0.48935001    -0.12200
C2331       C  0.59989058  0.75409227  0.46700093     0.01900
C2332       C  0.57712386  0.75641836  0.47986625    -0.00500
C2333       C  0.57110733  0.75244789  0.51531458    -0.12200
C2334       C  0.58792964  0.74719941  0.03794726     0.01800
H2335       H  0.63396778  0.74724059  0.47842194     0.14700
H2336       H  0.55410374  0.75493480  0.52566809     0.14700
C2337       C  0.58067788  0.74389305  0.07403370     0.36400
C2338       C  0.60668476  0.75736479  0.43072542     0.36300
N2339       N  0.57479778  0.74129396  0.10295882    -0.44000
N2340       N  0.61197692  0.75991610  0.40163410    -0.44000
C2341       C  0.72061756  0.80031210  0.14618686    -0.00400
C2342       C  0.72103317  0.79780729  0.18215352    -0.12200
C2343       C  0.72513020  0.82001104  0.20423438     0.01900
C2344       C  0.72892070  0.84548379  0.19028268    -0.00500
C2345       C  0.72974407  0.84808232  0.15408809    -0.12200
C2346       C  0.72566086  0.82600001  0.13231743     0.01800
H2347       H  0.71642831  0.77783504  0.19311003     0.14700
H2348       H  0.73338466  0.86747969  0.14233145     0.14700
C2349       C  0.72616471  0.82997416  0.09557062     0.36400
C2350       C  0.72453031  0.81558938  0.24086141     0.36300
N2351       N  0.72669860  0.83322135  0.06613427    -0.44000
N2352       N  0.72405198  0.81197211  0.27021520    -0.44000
C2353       C  0.66798955  0.63343672  0.04645885    -0.00400
C2354       C  0.66150451  0.61137035  0.06928437    -0.12200
C2355       C  0.66028764  0.58653087  0.05773066     0.01900
C2356       C  0.66655666  0.58392259  0.02288513    -0.00500
C2357       C  0.67050138  0.60511675  0.99964950    -0.12200
C2358       C  0.67100787  0.62957690  0.01109741     0.01800
H2359       H  0.65750409  0.61359248  0.09614315     0.14700
H2360       H  0.67515808  0.60359382  0.47284057     0.14700
C2361       C  0.67571836  0.65090764  0.48613814     0.36400
C2362       C  0.65266585  0.56411189  0.08219758     0.36300
N2363       N  0.67935061  0.66777521  0.46588970    -0.44000
N2364       N  0.64636207  0.54604604  0.10170891    -0.44000
C2365       C  0.86554728  0.72318730  0.27407549    -0.00400
C2366       C  0.85724919  0.71515940  0.23972201    -0.12200
C2367       C  0.87355221  0.70950972  0.21684965     0.01900
C2368       C  0.89941588  0.71237661  0.22761763    -0.00500
C2369       C  0.90828773  0.72109459  0.26160962    -0.12200
C2370       C  0.89149446  0.72607758  0.28492750     0.01800
H2371       H  0.83755781  0.71284361  0.23058678     0.14700
H2372       H  0.92751390  0.72228197  0.27063775     0.14700
C2373       C  0.90111925  0.73332254  0.31992334     0.36400
C2374       C  0.86266567  0.69979426  0.18262407     0.36300
N2375       N  0.90861628  0.73876089  0.34812586    -0.44000
N2376       N  0.85379354  0.69168470  0.15537180    -0.44000
C2377       C  0.90918184  0.80125535  0.35812021    -0.00400
C2378       C  0.91496758  0.79955967  0.39318282    -0.12200
C2379       C  0.93958257  0.79994874  0.40342677     0.01900
C2380       C  0.95956530  0.80278871  0.37865403    -0.00500
C2381       C  0.95527317  0.80697318  0.34409139    -0.12200
C2382       C  0.93033833  0.80602453  0.33357450     0.01800
H2383       H  0.89955900  0.79648315  0.41282295     0.14700
H2384       H  0.97097267  0.80979520  0.32496912     0.14700
C2385       C  0.92664988  0.80855500  0.29731247     0.36400
C2386       C  0.94406924  0.79772123  0.43956520     0.36300
N2387       N  0.92375885  0.81053653  0.26820005    -0.44000
N2388       N  0.94784233  0.79613813  0.46851137    -0.44000
C2389       C  0.77497962  0.75675922  0.44263114    -0.00400
C2390       C  0.77963717  0.74825033  0.47460850    -0.12200
C2391       C  0.75952437  0.73993824  0.50108938     0.01900
C2392       C  0.73372871  0.73937573  0.49556363    -0.00500
C2393       C  0.72892841  0.74767130  0.46371594    -0.12200
C2394       C  0.74922830  0.75664092  0.43752101     0.01800
H2395       H  0.79888117  0.74770562  0.47878750     0.14700
H2396       H  0.70926026  0.74736261  0.45936293     0.14700
C2397       C  0.74217750  0.76449819  0.40532532     0.36400
C2398       C  0.76548497  0.73102046  0.53325052     0.36300
N2399       N  0.73644698  0.77091952  0.37968242    -0.44000
N2400       N  0.77037503  0.72398060  0.55902058    -0.44000
C2401       C  0.70302568  0.71347278  0.19314098    -0.00400
C2402       C  0.69944799  0.72379296  0.22466001    -0.12200
C2403       C  0.71960733  0.73192827  0.25081963     0.01900
C2404       C  0.74442690  0.73051837  0.24547372    -0.00500
C2405       C  0.74801642  0.72001885  0.21429542    -0.12200
C2406       C  0.72757423  0.71112138  0.18843534     0.01800
H2407       H  0.68109599  0.72600778  0.22867859     0.14700
H2408       H  0.76682283  0.71858525  0.21021206     0.14700
C2409       C  0.73329456  0.70068578  0.15701053     0.36400
C2410       C  0.71475732  0.74270668  0.28247953     0.36300
N2411       N  0.73798900  0.69223362  0.13200462    -0.44000
N2412       N  0.71069599  0.75120797  0.30785499    -0.44000
C2413       C  0.74479547  0.62529760  0.43957855    -0.00400
C2414       C  0.74751155  0.62320303  0.40363104    -0.12200
C2415       C  0.75303760  0.64528994  0.38145262     0.01900
C2416       C  0.75613915  0.67052624  0.39465683    -0.00500
C2417       C  0.75205211  0.67250340  0.43012591    -0.12200
C2418       C  0.74647423  0.65022541  0.45263268     0.01800
H2419       H  0.74564091  0.60427166  0.39240959     0.14700
H2420       H  0.75491892  0.69203580  0.44053661     0.14700
C2421       C  0.74339613  0.65406381  0.48882171     0.36400
C2422       C  0.75596203  0.64173039  0.34506869     0.36300
N2423       N  0.74094849  0.65734668  0.01779569    -0.44000
N2424       N  0.75819668  0.63881007  0.31593544    -0.44000
C2425       C  0.80545825  0.88383365  0.27351812    -0.00400
C2426       C  0.80115188  0.86236194  0.25021757    -0.12200
C2427       C  0.80227079  0.83865896  0.26101538     0.01900
C2428       C  0.80829966  0.83624063  0.29563741    -0.00500
C2429       C  0.81427601  0.85825526  0.31857304    -0.12200
C2430       C  0.81289395  0.88189688  0.30794530     0.01800
H2431       H  0.79487221  0.86301014  0.22399467     0.14700
H2432       H  0.81938006  0.85665845  0.34506844     0.14700
C2433       C  0.81836266  0.90335493  0.33332762     0.36400
C2434       C  0.79568924  0.81641874  0.23637822     0.36300
N2435       N  0.82259330  0.92041012  0.35380477    -0.44000
N2436       N  0.79027332  0.79875264  0.21635253    -0.44000
Fe2437     Fe  0.83103541  0.77328258  0.79298030     1.65800
Fe2438     Fe  0.82830523  0.74237129  0.86742074     1.73200
Fe2439     Fe  0.77604630  0.75280512  0.84589847     1.54400
O2440       O  0.78585194  0.79043994  0.82043479    -0.81900
O2441       O  0.79488273  0.70269987  0.86214816    -0.80200
O2442       O  0.83067637  0.80970921  0.80333394    -0.84400
O2443       O  0.79238399  0.75681644  0.76546987    -0.79200
O2444       O  0.79461567  0.77610625  0.88850438    -0.81000
O2445       O  0.85066343  0.73381191  0.82853226    -0.83800
C2446       C  0.76624957  0.73950304  0.77248813     0.97000
C2447       C  0.80843699  0.81091722  0.80781752     1.04400
O2448       O  0.81140577  0.75562193  0.83470629    -1.12700
O2449       O  0.86118845  0.78233180  0.87249083    -0.75200
O2450       O  0.87152766  0.79035464  0.81705352    -0.78700
O2451       O  0.75766174  0.73049551  0.80261266    -0.79400
C2452       C  0.87934464  0.79227505  0.84856677     0.95900
O2453       O  0.83220265  0.73797844  0.78009822    -0.77300
O2454       O  0.80766064  0.74809210  0.91080461    -0.82500
C2455       C  0.77100298  0.69671158  0.87428744     0.98500
C2456       C  0.79490017  0.76204387  0.91360845     1.04400
O2457       O  0.76183260  0.71402444  0.87279894    -0.78200
C2458       C  0.84816015  0.73139666  0.79575105     1.02700
Fe2459     Fe  0.64724813  0.69720806  0.54398034     1.65800
Fe2460     Fe  0.64993785  0.72825365  0.61846932     1.73200
Fe2461     Fe  0.70216013  0.71794805  0.59628450     1.54400
O2462       O  0.69205376  0.67983490  0.57077947    -0.81900
O2463       O  0.68279861  0.76806387  0.61294505    -0.80200
O2464       O  0.64713951  0.66097840  0.55486112    -0.84400
O2465       O  0.68585911  0.71322947  0.51613888    -0.79200
O2466       O  0.68352462  0.69472213  0.63879073    -0.81000
O2467       O  0.62700396  0.73607805  0.57972377    -0.83800
C2468       C  0.71200572  0.73054696  0.52289664     0.97000
C2469       C  0.66906561  0.65934545  0.55889857     1.04400
O2470       O  0.66702671  0.71529124  0.58533217    -1.12700
O2471       O  0.61810801  0.68802060  0.62368947    -0.75200
O2472       O  0.60704285  0.68020574  0.56854673    -0.78700
O2473       O  0.72058668  0.73990886  0.55290865    -0.79400
C2474       C  0.59972101  0.67789474  0.60036362     0.95900
O2475       O  0.64598758  0.73234990  0.53112126    -0.77300
O2476       O  0.67098227  0.72310060  0.66161369    -0.82500
C2477       C  0.70659756  0.77426532  0.62516191     0.98500
C2478       C  0.68343627  0.70884294  0.66412564     1.04400
O2479       O  0.71609739  0.75713319  0.62334906    -0.78200
C2480       C  0.62947792  0.73839871  0.54684852     1.02700
Fe2481     Fe  0.69914054  0.54017295  0.95504122     1.65800
Fe2482     Fe  0.72762052  0.56725901  0.53084265     1.73200
Fe2483     Fe  0.72495831  0.50883842  0.50289318     1.54400
O2484       O  0.68999194  0.98007612  0.97577042    -0.81900
O2485       O  0.76882188  0.57858515  0.52639103    -0.80200
O2486       O  0.66722212  0.00311921  0.96395823    -0.84400
O2487       O  0.71714501  0.52078558  0.92503323    -0.79200
O2488       O  0.70240299  0.99794567  0.54613019    -0.81000
O2489       O  0.73460827  0.59903523  0.99363939    -0.83800
C2490       C  0.73718119  0.51566553  0.93009444     0.97000
C2491       C  0.66799828  0.98055902  0.96572727     1.04400
O2492       O  0.71763754  0.53890574  0.49595015    -1.12700
O2493       O  0.68629170  0.55569283  0.53543953    -0.75200
O2494       O  0.67972014  0.56045966  0.98047018    -0.78700
O2495       O  0.74842614  0.51868691  0.95927696    -0.79400
C2496       C  0.67622788  0.56407531  0.51234532     0.95900
O2497       O  0.73324824  0.57806144  0.94430560    -0.77300
O2498       O  0.72286350  0.53904404  0.57170419    -0.82500
C2499       C  0.77691057  0.56235462  0.53778117     0.98500
C2500       C  0.71156294  0.51214786  0.57242096     1.04400
O2501       O  0.76267628  0.53556269  0.53214014    -0.78200
C2502       C  0.73787787  0.59987020  0.96078837     1.02700
Fe2503     Fe  0.77543319  0.93003169  0.70603482     1.65800
Fe2504     Fe  0.74503818  0.90358348  0.78137143     1.73200
Fe2505     Fe  0.75413794  0.96509880  0.75580495     1.54400
O2506       O  0.78946723  0.49221642  0.72738910    -0.81900
O2507       O  0.70519006  0.89610818  0.77526205    -0.80200
O2508       O  0.81168471  0.96733197  0.71539103    -0.84400
O2509       O  0.75885433  0.95104793  0.67676725    -0.79200
O2510       O  0.77790869  0.97263141  0.79834950    -0.81000
O2511       O  0.73703221  0.87153030  0.74418709    -0.83800
C2512       C  0.74061740  0.95874580  0.68249831     0.97000
C2513       C  0.81268069  0.99076345  0.71796361     1.04400
O2514       O  0.75793480  0.93285559  0.74726301    -1.12700
O2515       O  0.78508592  0.91149526  0.78710762    -0.75200
O2516       O  0.79294273  0.90804653  0.73170826    -0.78700
O2517       O  0.73124468  0.95851963  0.71242173    -0.79400
C2518       C  0.79550414  0.90352984  0.76356177     0.95900
O2519       O  0.73997121  0.89284952  0.69514966    -0.77300
O2520       O  0.75089547  0.93161949  0.82297316    -0.82500
C2521       C  0.69875515  0.91366099  0.78698989     0.98500
C2522       C  0.76493667  0.95858743  0.82446789     1.04400
O2523       O  0.71560163  0.94042450  0.78427266    -0.78200
C2524       C  0.73474167  0.87085225  0.71135250     1.02700
Fe2525     Fe  0.54616259  0.82390732  0.87245373     1.65800
Fe2526     Fe  0.57404244  0.82622435  0.94930568     1.73200
Fe2527     Fe  0.51157383  0.77162137  0.92881407     1.54400
O2528       O  0.98306914  0.78049052  0.90340370    -0.81900
O2529       O  0.58247457  0.79436301  0.94725199    -0.80200
O2530       O  0.00884226  0.82294458  0.87936866    -0.84400
O2531       O  0.52452809  0.78419464  0.84689482    -0.79200
O2532       O  0.00722115  0.79187258  0.96989243    -0.81000
O2533       O  0.60520044  0.84886673  0.91045125    -0.83800
C2534       C  0.51419586  0.75826838  0.85554772     1.01200
C2535       C  0.98527305  0.80204556  0.88801643     1.04400
O2536       O  0.54405363  0.80659393  0.91596845    -1.12700
O2537       O  0.56449461  0.85738662  0.95077696    -0.75200
O2538       O  0.56807302  0.86535206  0.89452066    -0.78700
O2539       O  0.51372006  0.75074250  0.88642693    -0.79400
C2540       C  0.57258566  0.87441173  0.92576579     0.95900
O2541       O  0.58363068  0.82582004  0.86327012    -0.77300
O2542       O  0.54796253  0.80598970  0.99340842    -0.82500
C2543       C  0.56487865  0.77018859  0.95904687     0.98500
C2544       C  0.52106735  0.79261512  0.99563116     1.04400
O2545       O  0.53792754  0.75965288  0.95648788    -0.78200
C2546       C  0.60549034  0.84505195  0.87793796     1.02700
Fe2547     Fe  0.93448743  0.64489941  0.62271534     1.65800
Fe2548     Fe  0.90486186  0.64361137  0.69835891     1.73200
Fe2549     Fe  0.96672311  0.69874127  0.67784541     1.54400
O2550       O  0.49617648  0.69102114  0.65262552    -0.81900
O2551       O  0.89600752  0.67490721  0.69547962    -0.80200
O2552       O  0.97145566  0.64666796  0.63363109    -0.84400
O2553       O  0.95658992  0.68431581  0.59688146    -0.79200
O2554       O  0.97191233  0.67964214  0.71902153    -0.81000
O2555       O  0.87450975  0.62153450  0.65867644    -0.83800
C2556       C  0.96531504  0.71021787  0.60461393     0.97000
C2557       C  0.49464140  0.66885512  0.63978879     1.04400
O2558       O  0.93490887  0.66306882  0.66526457    -1.12700
O2559       O  0.91429116  0.61235288  0.70086799    -0.75200
O2560       O  0.91208336  0.60396852  0.64476580    -0.78700
O2561       O  0.96375516  0.71805617  0.63491652    -0.79400
C2562       C  0.90681327  0.59520826  0.67593180     0.95900
O2563       O  0.89694620  0.64124860  0.60970335    -0.77300
O2564       O  0.93073283  0.66415121  0.74271486    -0.82500
C2565       C  0.91279941  0.69919685  0.70740217     0.98500
C2566       C  0.95767277  0.67740284  0.74524170     1.04400
O2567       O  0.93981790  0.71021458  0.70550730    -0.78200
C2568       C  0.87462097  0.62435921  0.62587417     1.02700
C2569       C  0.97320891  0.69470930  0.77623424    -0.00400
C2570       C  0.95807546  0.69474726  0.80549868    -0.12200
C2571       C  0.97141471  0.71460038  0.83207053     0.01900
C2572       C  0.00031053  0.73560922  0.82931724    -0.00500
C2573       C  0.01577951  0.73497342  0.80110489    -0.12200
C2574       C  0.00289546  0.71460008  0.77513718     0.01800
H2575       H  0.93557691  0.67988062  0.80717605     0.14700
H2576       H  0.53809504  0.75057963  0.79929603     0.14700
C2577       C  0.02099911  0.71566895  0.74728880     0.36400
C2578       C  0.95464494  0.71376397  0.86128159     0.36300
N2579       N  0.03558323  0.71665268  0.72503429    -0.44000
N2580       N  0.94122932  0.71297374  0.88478800    -0.44000
C2581       C  0.50558701  0.77297839  0.52475221    -0.00400
C2582       C  0.51869283  0.77692228  0.55682176    -0.12200
C2583       C  0.50569315  0.75702691  0.58331936     0.01900
C2584       C  0.97911465  0.73232700  0.57789399    -0.00500
C2585       C  0.96605149  0.72828689  0.54606628    -0.12200
C2586       C  0.97869783  0.74816343  0.51974952     0.01800
H2587       H  0.53938972  0.79528141  0.56100035     0.14700
H2588       H  0.94582649  0.70932521  0.54165872     0.14700
C2589       C  0.96380231  0.74126682  0.98742111     0.36400
C2590       C  0.52086945  0.76170958  0.61516014     0.36300
N2591       N  0.95159608  0.73540147  0.96170509    -0.44000
N2592       N  0.53314818  0.76551252  0.64059287    -0.44000
C2593       C  0.67293335  0.90157868  0.80856681    -0.00400
C2594       C  0.67586246  0.90703443  0.84415109    -0.12200
C2595       C  0.65474032  0.88898500  0.86757280     0.01900
C2596       C  0.62981061  0.86490205  0.85538560    -0.00500
C2597       C  0.62655186  0.86072657  0.81944083    -0.12200
C2598       C  0.64762650  0.87858807  0.79634038     0.01800
H2599       H  0.69557324  0.92429167  0.85391141     0.14700
H2600       H  0.60748456  0.84309386  0.80896371     0.14700
C2601       C  0.64316812  0.87238086  0.75998752     0.36400
C2602       C  0.65996280  0.89530775  0.90377700     0.36300
N2603       N  0.63955326  0.86741367  0.73087427    -0.44000
N2604       N  0.66443511  0.90063981  0.93272824    -0.44000
C2605       C  0.83661508  0.51592164  0.70539211    -0.00400
C2606       C  0.86058646  0.52851669  0.72640505    -0.12200
C2607       C  0.88520851  0.55306876  0.71580707     0.01900
C2608       C  0.88614472  0.56519533  0.68344310    -0.00500
C2609       C  0.86286977  0.55104604  0.66138199    -0.12200
C2610       C  0.83821117  0.52675351  0.67213210     0.01800
H2611       H  0.85981441  0.51958770  0.75145143     0.14700
H2612       H  0.86308884  0.56003948  0.63659542     0.14700
C2613       C  0.81474129  0.51363825  0.64860067     0.36400
C2614       C  0.90901486  0.56579112  0.73888241     0.36300
N2615       N  0.79726490  0.00530093  0.63085007    -0.44000
N2616       N  0.92813838  0.57605055  0.75730845    -0.44000
C2617       C  0.73135545  0.97057853  0.65444119    -0.00400
C2618       C  0.72798956  0.49409009  0.66093530    -0.12200
C2619       C  0.72075067  0.50755550  0.63580771     0.01900
C2620       C  0.71569875  0.49726033  0.60179348    -0.00500
C2621       C  0.72153485  0.97471209  0.59459383    -0.12200
C2622       C  0.72877525  0.96154679  0.62002457     0.01800
H2623       H  0.73217071  0.50248332  0.68691180     0.14700
H2624       H  0.72031003  0.96777563  0.56817178     0.14700
C2625       C  0.73343755  0.93886774  0.61004211     0.36400
C2626       C  0.71778753  0.53120402  0.64597790     0.36300
N2627       N  0.73725524  0.92073828  0.60209795    -0.44000
N2628       N  0.71512403  0.54992375  0.65454283    -0.44000
C2629       C  0.74827995  0.00342813  0.90371057    -0.00400
C2630       C  0.74895672  0.97889715  0.91216633    -0.12200
C2631       C  0.75493869  0.96407422  0.88728391     0.01900
C2632       C  0.76130693  0.97430388  0.85336682    -0.00500
C2633       C  0.75967278  0.49918971  0.84471675    -0.12200
C2634       C  0.75290414  0.51343516  0.86948664     0.01800
H2635       H  0.74385128  0.97072910  0.93818077     0.14700
H2636       H  0.76489299  0.50784752  0.81894552     0.14700
C2637       C  0.75376979  0.53923953  0.86008148     0.36400
C2638       C  0.75425749  0.93850510  0.89724462     0.36300
N2639       N  0.75444631  0.55989051  0.85245623    -0.44000
N2640       N  0.75361124  0.91797242  0.90536505    -0.44000
C2641       C  0.80098162  0.57523776  0.56235342    -0.00400
C2642       C  0.82564519  0.57427488  0.55622821    -0.12200
C2643       C  0.84964315  0.58982119  0.57704239     0.01900
C2644       C  0.84894427  0.60606625  0.60519664    -0.00500
C2645       C  0.82383625  0.60572637  0.61238996    -0.12200
C2646       C  0.80024420  0.59105252  0.59101426     0.01800
H2647       H  0.82657547  0.56237534  0.53442402     0.14700
H2648       H  0.82305758  0.61803916  0.63383220     0.14700
C2649       C  0.77578119  0.59348581  0.59857620     0.36400
C2650       C  0.87477836  0.58868547  0.56907737     0.36300
N2651       N  0.75645872  0.59593502  0.60456370    -0.44000
N2652       N  0.89492642  0.58775921  0.56278813    -0.44000
C2653       C  0.59285376  0.90467378  0.93370006    -0.00400
C2654       C  0.61415572  0.92088687  0.90957928    -0.12200
C2655       C  0.63873648  0.94577225  0.91954087     0.01900
C2656       C  0.64260510  0.95446229  0.95430465    -0.00500
C2657       C  0.62044706  0.93987147  0.97764676    -0.12200
C2658       C  0.59558028  0.91545291  0.96761408     0.01800
H2659       H  0.61247532  0.91332909  0.88337560     0.14700
H2660       H  0.62262440  0.94755320  0.00387380     0.14700
C2661       C  0.57330159  0.90180260  0.99284690     0.36400
C2662       C  0.65978753  0.96190870  0.89372967     0.36300
N2663       N  0.55545199  0.89098451  0.01309471    -0.44000
N2664       N  0.67643857  0.97490132  0.87287276    -0.44000
C2665       C  0.57016966  0.66895864  0.61045877    -0.00400
C2666       C  0.55211912  0.66934175  0.58526577    -0.12200
C2667       C  0.52748802  0.66941086  0.59456536     0.01900
C2668       C  0.52045011  0.66896691  0.62957128    -0.00500
C2669       C  0.53724639  0.66683023  0.65474858    -0.12200
C2670       C  0.56180397  0.66654990  0.64563291     0.01800
H2671       H  0.55811679  0.67152388  0.55835404     0.14700
H2672       H  0.53124397  0.66556562  0.68159725     0.14700
C2673       C  0.57825868  0.66466884  0.67326211     0.36400
C2674       C  0.51059911  0.67166552  0.56782159     0.36300
N2675       N  0.59142459  0.66335230  0.69553605    -0.44000
N2676       N  0.49711802  0.67359848  0.54644028    -0.44000
C2677       C  0.61144442  0.74573559  0.52518380    -0.00400
C2678       C  0.61658561  0.74879338  0.98934973    -0.12200
C2679       C  0.59989198  0.75409462  0.96699986     0.01900
C2680       C  0.57712292  0.75641728  0.97986380    -0.00500
C2681       C  0.57110450  0.75244485  0.01531161    -0.12200
C2682       C  0.58793187  0.74720079  0.53794931     0.01800
H2683       H  0.63397126  0.74724690  0.97842271     0.14700
H2684       H  0.55409930  0.75492944  0.02566408     0.14700
C2685       C  0.58068112  0.74389503  0.57403603     0.36400
C2686       C  0.60668889  0.75737005  0.93072508     0.36300
N2687       N  0.57480184  0.74129620  0.60296140    -0.44000
N2688       N  0.61198356  0.75992387  0.90163443    -0.44000
C2689       C  0.72061745  0.80031342  0.64618879    -0.00400
C2690       C  0.72103425  0.79780847  0.68215533    -0.12200
C2691       C  0.72513117  0.82001188  0.70423672     0.01900
C2692       C  0.72892100  0.84548455  0.69028559    -0.00500
C2693       C  0.72974234  0.84808287  0.65409106    -0.12200
C2694       C  0.72565870  0.82600076  0.63231994     0.01800
H2695       H  0.71643036  0.77783647  0.69311129     0.14700
H2696       H  0.73338161  0.86747985  0.64233484     0.14700
C2697       C  0.72615951  0.82997441  0.59557327     0.36400
C2698       C  0.72453128  0.81558959  0.74086364     0.36300
N2699       N  0.72669063  0.83322103  0.56613704    -0.44000
N2700       N  0.72405255  0.81197120  0.77021722    -0.44000
C2701       C  0.66799575  0.63344003  0.54645958    -0.00400
C2702       C  0.66149391  0.61136470  0.56927772    -0.12200
C2703       C  0.66027634  0.58652582  0.55771970     0.01900
C2704       C  0.66655966  0.58392627  0.52287780    -0.00500
C2705       C  0.67052114  0.60512972  0.49964779    -0.12200
C2706       C  0.67102964  0.62958989  0.51109948     0.01800
H2707       H  0.65748116  0.61357944  0.59613428     0.14700
H2708       H  0.67512711  0.60357427  0.97283975     0.14700
C2709       C  0.67568161  0.65088656  0.98613115     0.36400
C2710       C  0.65263785  0.56409753  0.58217760     0.36300
N2711       N  0.67930208  0.66774861  0.96588030    -0.44000
N2712       N  0.64632035  0.54602398  0.60168128    -0.44000
C2713       C  0.86555184  0.72318754  0.77408218    -0.00400
C2714       C  0.85724848  0.71515342  0.73973144    -0.12200
C2715       C  0.87354860  0.70950100  0.71685771     0.01900
C2716       C  0.89941488  0.71237155  0.72762113    -0.00500
C2717       C  0.90829119  0.72109416  0.76161095    -0.12200
C2718       C  0.89150052  0.72607958  0.78493052     0.01800
H2719       H  0.83755536  0.71283523  0.73059945     0.14700
H2720       H  0.92751899  0.72228371  0.77063619     0.14700
C2721       C  0.90112916  0.73332849  0.81992445     0.36400
C2722       C  0.86265628  0.69977924  0.68263569     0.36300
N2723       N  0.90862894  0.73876955  0.84812570    -0.44000
N2724       N  0.85377916  0.69166443  0.65538655    -0.44000
C2725       C  0.90918869  0.80125973  0.85812395    -0.00400
C2726       C  0.91497207  0.79955796  0.89318583    -0.12200
C2727       C  0.93958610  0.79994466  0.90342893     0.01900
C2728       C  0.95957019  0.80278798  0.87865615    -0.00500
C2729       C  0.95528033  0.80697838  0.84409481    -0.12200
C2730       C  0.93034658  0.80603241  0.83357874     0.01800
H2731       H  0.89956249  0.79647873  0.91282576     0.14700
H2732       H  0.97098087  0.80980331  0.82497260     0.14700
C2733       C  0.92666124  0.80857062  0.79731781     0.36400
C2734       C  0.94407054  0.79771199  0.93956674     0.36300
N2735       N  0.92377289  0.81055862  0.76820623    -0.44000
N2736       N  0.94784165  0.79612491  0.96851255    -0.44000
C2737       C  0.77498283  0.75676599  0.94263131    -0.00400
C2738       C  0.77963181  0.74824064  0.97460255    -0.12200
C2739       C  0.75951644  0.73992418  0.00108090     0.01900
C2740       C  0.73372769  0.73937629  0.99555991    -0.00500
C2741       C  0.72893578  0.74768908  0.96371910    -0.12200
C2742       C  0.74923763  0.75666132  0.93752591     0.01800
H2743       H  0.79887018  0.74768457  0.97877792     0.14700
H2744       H  0.70927264  0.74739142  0.95937016     0.14700
C2745       C  0.74219420  0.76453468  0.90533642     0.36400
C2746       C  0.76546561  0.73098490  0.03323352     0.36300
N2747       N  0.73646930  0.77096817  0.87969837    -0.44000
N2748       N  0.77034552  0.72392673  0.05899667    -0.44000
C2749       C  0.70303456  0.71348062  0.69314033    -0.00400
C2750       C  0.69945382  0.72379280  0.72466383    -0.12200
C2751       C  0.71961359  0.73192682  0.75082300     0.01900
C2752       C  0.74443637  0.73052349  0.74547230    -0.00500
C2753       C  0.74803000  0.72003418  0.71428833    -0.12200
C2754       C  0.72758801  0.71113871  0.68842827     0.01800
H2755       H  0.68109860  0.72600145  0.72868676     0.14700
H2756       H  0.76683965  0.71860711  0.71020034     0.14700
C2757       C  0.73331372  0.70071571  0.65699660     0.36400
C2758       C  0.71476078  0.74269711  0.78248801     0.36300
N2759       N  0.73801261  0.69227371  0.63198514    -0.44000
N2760       N  0.71069846  0.75119207  0.80786812    -0.44000
C2761       C  0.74479808  0.62529864  0.93957899    -0.00400
C2762       C  0.74752714  0.62320882  0.90363333    -0.12200
C2763       C  0.75305582  0.64529662  0.88145506     0.01900
C2764       C  0.75614768  0.67052957  0.89465762    -0.00500
C2765       C  0.75204860  0.67250209  0.93012442    -0.12200
C2766       C  0.74646764  0.65022290  0.95263095     0.01800
H2767       H  0.74566464  0.60428037  0.89241344     0.14700
H2768       H  0.75490781  0.69203182  0.94053427     0.14700
C2769       C  0.74337574  0.65405575  0.98881783     0.36400
C2770       C  0.75599311  0.64174157  0.84507310     0.36300
N2771       N  0.74097971  0.65735980  0.51780101    -0.44000
N2772       N  0.75823838  0.63882523  0.81594138    -0.44000
C2773       C  0.80546199  0.88383574  0.77351776    -0.00400
C2774       C  0.80115546  0.86236422  0.75021676    -0.12200
C2775       C  0.80227513  0.83866148  0.76101379     0.01900
C2776       C  0.80830454  0.83624308  0.79563558    -0.00500
C2777       C  0.81428124  0.85825766  0.81857145    -0.12200
C2778       C  0.81289872  0.88189915  0.80794441     0.01800
H2779       H  0.79487538  0.86301248  0.72399413     0.14700
H2780       H  0.81938601  0.85666093  0.84506657     0.14700
C2781       C  0.81836838  0.90335740  0.83332679     0.36400
C2782       C  0.79569465  0.81642202  0.73637587     0.36300
N2783       N  0.82259994  0.92041283  0.85380400    -0.44000
N2784       N  0.79027981  0.79875672  0.71634934    -0.44000
loop_ 
_geom_bond_atom_site_label_1 
_geom_bond_atom_site_label_2 
_geom_bond_distance 
_geom_bond_site_symmetry_2 
_ccdc_geom_bond_type 
Fe1          O17   2.043       .  S
Fe1           O7   2.132       .  S
Fe1          O14   2.150       .  S
Fe1           O6   2.057       .  S
Fe1          O12   1.922       .  S
Fe2           O5   2.032       .  S
Fe2           O9   2.143       .  S
Fe2          O13   2.022       .  S
Fe2          O18   2.132       .  S
Fe2          O12   1.930       .  S
Fe3          O21   2.145       .  S
Fe3           O8   2.025       .  S
Fe3          O15   2.024       .  S
Fe3           O4   2.105       .  S
Fe3          O12   1.916       .  S
O4           C11   1.276       .  A
O5           C19   1.270       .  A
O6           C11   1.268       .  A
O7           C10   1.288       .  A
O8           C20   1.253       .  A
O9           C22   1.283       .  A
C10          O15   1.267       .  A
C10         C316   1.479       .  S
C11         C340   1.481       .  S
O13          C16   1.262       .  A
O14          C16   1.287       .  A
C16         C289   1.500       .  S
O17          C22   1.267       .  A
O18          C20   1.276       .  A
C19          O21   1.286       .  A
C19         C328   1.479       .  S
C20         C301   1.486       .  S
C22         C277   1.508       .  S
Fe23         O39   2.039       .  S
Fe23         O29   2.125       .  S
Fe23         O36   2.133       .  S
Fe23         O28   2.033       .  S
Fe23         O34   1.913       .  S
Fe24         O27   2.015       .  S
Fe24         O31   2.148       .  S
Fe24         O35   2.016       .  S
Fe24         O40   2.136       .  S
Fe24         O34   1.924       .  S
Fe25         O43   2.152       .  S
Fe25         O30   2.023       .  S
Fe25         O37   2.025       .  S
Fe25         O26   2.112       .  S
Fe25         O34   1.910       .  S
O26          C33   1.279       .  A
O27          C41   1.266       .  A
O28          C33   1.264       .  A
O29          C32   1.286       .  A
O30          C42   1.251       .  A
O31          C44   1.283       .  A
C32          O37   1.266       .  A
C32         C652   1.483   1_554  S
C33         C265   1.471       .  S
O35          C38   1.260       .  A
O36          C38   1.286       .  A
C38         C229   1.485       .  S
O39          C44   1.266       .  A
O40          C42   1.277       .  A
C41          O43   1.289       .  A
C41         C253   1.476       .  S
C42         C313   1.493       .  S
C44         C241   1.509       .  S
Fe45         O61   2.021       .  S
Fe45         O51   2.118       .  S
Fe45         O58   2.130       .  S
Fe45        O746   2.030       .  S
Fe45        O404   1.916       .  S
Fe46         O49   2.023       .  S
Fe46         O57   2.026       .  S
Fe46         O62   2.148       .  S
Fe46        O401   2.157   1_554  S
Fe46         O56   1.920   1_554  S
Fe47         O65   2.158       .  S
Fe47        O748   2.020   1_545  S
Fe47        O407   2.025   1_554  S
Fe47       O1092   2.133   1_544  S
Fe47         O56   1.910   1_554  S
O48       Fe1091   2.133       .  S
O48          C55   1.284       .  A
O49          C63   1.264       .  A
O50        Fe741   2.033       .  S
O50          C55   1.264       .  A
O51          C54   1.281       .  A
O52        Fe743   2.020       .  S
O52         C760   1.257       .  A
O53        Fe394   2.157       .  S
O53          C66   1.286       .  A
C54          O59   1.264       .  A
C54         C889   1.475       .  S
C55         C220   1.475       .  S
O56        Fe393   1.916       .  S
O57          C60   1.261       .  A
O58         C408   1.283       .  A
O59        Fe395   2.025       .  S
C60         O406   1.283   1_554  A
C60         C268   1.490       .  S
O61          C66   1.263       .  A
O62          C64   1.282       .  A
C63          O65   1.289       .  A
C63         C205   1.488       .  S
C64         O748   1.257   1_545  A
C64         C184   1.492   1_545  S
C66         C325   1.503       .  S
Fe67         O83   2.027       .  S
Fe67         O73   2.137       .  S
Fe67         O80   2.144       .  S
Fe67         O72   2.042       .  S
Fe67         O78   1.909       .  S
Fe68         O71   2.032       .  S
Fe68         O75   2.137       .  S
Fe68         O79   2.029       .  S
Fe68         O84   2.140       .  S
Fe68         O78   1.923       .  S
Fe69         O87   2.145       .  S
Fe69         O74   2.020       .  S
Fe69         O81   2.023       .  S
Fe69        O766   2.118       .  S
Fe69         O78   1.913       .  S
O70        Fe765   2.118       .  S
O70         C773   1.280       .  A
O71          C85   1.265       .  A
O72          C77   1.265       .  A
O73          C76   1.287       .  A
O74          C86   1.257       .  A
O75          C88   1.282       .  A
C76          O81   1.265       .  A
C76         C181   1.485       .  S
C77         O766   1.280       .  A
C77         C865   1.475       .  S
O79          C82   1.265       .  A
O80          C82   1.288       .  A
C82         C337   1.496       .  S
O83          C88   1.263       .  A
O84          C86   1.282       .  A
C85          O87   1.285       .  A
C85         C157   1.479       .  S
C86         C196   1.488       .  S
C88         C256   1.499       .  S
Fe89        O105   2.034       .  S
Fe89         O95   2.117       .  S
Fe89        O102   2.134       .  S
Fe89       O1486   2.036       .  S
Fe89        O100   1.919       .  S
Fe90         O93   2.028       .  S
Fe90         O97   2.139       .  S
Fe90        O101   2.033       .  S
Fe90        O106   2.138       .  S
Fe90        O100   1.943       .  S
Fe91        O109   2.169       .  S
Fe91        O103   2.039       .  S
Fe91       O1488   2.022       .  S
Fe91       O1484   2.117   1_455  S
Fe91        O100   1.911       .  S
O92       Fe1483   2.117       .  S
O92          C99   1.282       .  A
O93         C107   1.270       .  A
O94       Fe1481   2.036       .  S
O94          C99   1.265       .  A
O95          C98   1.283       .  A
O96       Fe1483   2.022       .  S
O96        C1500   1.249       .  A
O97         C110   1.281       .  A
C98         O103   1.268       .  A
C98        C1528   1.480       .  S
C99         C292   1.482       .  S
O101        C104   1.267       .  A
O102        C104   1.286       .  A
C104        C217   1.484       .  S
O105        C110   1.264       .  A
O106        C108   1.275       .  A
C107        O109   1.293       .  A
C107        C244   1.490       .  S
C108       O1488   1.249       .  A
C108        C493   1.494       .  S
C110        C160   1.502       .  S
Fe111       O127   2.035       .  S
Fe111       O117   2.126       .  S
Fe111       O124   2.122       .  S
Fe111       O116   2.031       .  S
Fe111       O122   1.923       .  S
Fe112       O115   2.024       .  S
Fe112       O119   2.135       .  S
Fe112       O123   2.035       .  S
Fe112       O128   2.148       .  S
Fe112       O122   1.929       .  S
Fe113       O131   2.162       .  S
Fe113       O118   2.019       .  S
Fe113       O125   2.031       .  S
Fe113      O1506   2.109       .  S
Fe113       O122   1.917       .  S
O114      Fe1505   2.109       .  S
O114        C121   1.277       .  A
O115        C129   1.266       .  A
O116       C1513   1.262       .  A
O117        C120   1.286       .  A
O118        C130   1.250       .  A
O119        C132   1.284       .  A
C120        O125   1.269       .  A
C120        C148   1.482       .  S
C121       O1508   1.262       .  A
C121        C232   1.467   1_655  S
O123        C126   1.265       .  A
O124        C126   1.282       .  A
C126        C172   1.482       .  S
O127        C132   1.267       .  A
O128        C130   1.279       .  A
C129        O131   1.290       .  A
C129        C280   1.490       .  S
C130        C133   1.500       .  S
C132        C208   1.485       .  S
C133        C134   1.405       .  A
C133        C138   1.430       .  A
C134        C135   1.406       .  A
C134        H139   1.084       .  S
C135        C136   1.415       .  A
C135        C142   1.443       .  S
C136       C1490   1.480       .  S
C136        C137   1.394       .  A
C137        C138   1.401       .  A
C137       H1532   1.085       .  S
C138        C141   1.446       .  S
H140       C1529   1.085       .  S
C141        N143   1.158       .  T
C142        N144   1.157       .  T
C145        C456   1.494   1_554  S
C145        C146   1.403       .  A
C145       C1542   1.427   1_455  A
C146        C147   1.406       .  A
C146        H151   1.085       .  S
C147       C1540   1.418   1_455  A
C147        C154   1.444       .  S
C148        C149   1.393       .  A
C148       C1539   1.418       .  A
C149        C150   1.398       .  A
C149        H152   1.085       .  S
C150       C1537   1.427       .  A
C150        C501   1.444   1_554  S
C153        C498   1.444       .  S
C153        N155   1.157       .  T
C154        N156   1.157       .  T
C157        C158   1.406       .  A
C157        C162   1.405       .  A
C158        C159   1.409       .  A
C158        H163   1.084       .  S
C159        C160   1.418       .  A
C159        C166   1.443       .  S
C160        C161   1.413       .  A
C161        C162   1.399       .  A
C161        H164   1.084       .  S
C162        C165   1.444       .  S
C165        N167   1.157       .  T
C166        N168   1.157       .  T
C169        C773   1.475   1_545  S
C169        C170   1.402       .  A
C169        C174   1.410       .  A
C170        C171   1.404       .  A
C170        H175   1.084       .  S
C171        C172   1.415       .  A
C171        C178   1.444       .  S
C172        C173   1.404       .  A
C173        C174   1.399       .  A
C173        H176   1.083       .  S
C174        C177   1.443       .  S
C177        N875   1.157       .  T
C178        N180   1.157       .  T
N179        C873   1.157       .  T
C181        C186   1.404       .  A
C181        C878   1.411       .  A
C182        C183   1.406   1_565  A
C182        C877   1.414       .  A
C182        H187   1.084       .  S
C183        C184   1.407   1_545  A
C183        C190   1.443       .  S
C184        C881   1.414       .  A
C185        C186   1.402       .  A
C185        C880   1.416       .  A
C185        H188   1.084       .  S
C186        C189   1.444       .  S
C189        N191   1.157       .  T
C190        N192   1.157       .  T
C193        C750   1.476       .  S
C193        C194   1.409       .  A
C193        C894   1.403       .  A
C194        C195   1.402       .  A
C194        H199   1.085       .  S
C195        C196   1.408       .  A
C195        C202   1.443       .  S
C196        C893   1.416       .  A
C197        C198   1.399   1_565  A
C197        C892   1.415       .  A
C197        H200   1.085   1_565  S
C198        C889   1.403       .  A
C198        C201   1.445       .  S
C201        N203   1.157       .  T
C202        N204   1.157       .  T
C205        C206   1.400       .  A
C205        C210   1.422       .  A
C206        C207   1.408       .  A
C206        H211   1.084       .  S
C207        C208   1.420       .  A
C207        C214   1.444       .  S
C208        C209   1.396       .  A
C209        C210   1.401       .  A
C209        H212   1.085       .  S
C210        C213   1.445       .  S
C213        N215   1.157       .  T
C214        N216   1.157       .  T
C217        C218   1.405       .  A
C217        C222   1.415       .  A
C218        C219   1.401       .  A
C218        H223   1.084       .  S
C219        C220   1.411       .  A
C219        C226   1.443       .  S
C220        C221   1.402       .  A
C221        C222   1.403       .  A
C221        H224   1.085       .  S
C222        C225   1.444       .  S
C225        N227   1.157       .  T
C226        N228   1.157       .  T
C229        C230   1.404       .  A
C229        C234   1.424       .  A
C230        C231   1.398       .  A
C230        H235   1.084       .  S
C231        C232   1.410       .  A
C231        C238   1.444       .  S
C232        C233   1.396       .  A
C233        C234   1.400       .  A
C233        H236   1.084       .  S
C234        C237   1.446       .  S
C237        N239   1.158       .  T
C238        N240   1.157       .  T
C241        C246   1.420       .  A
C241        C590   1.412   1_554  A
C242        C243   1.401       .  A
C242        C589   1.412       .  A
C242        H247   1.084       .  S
C243        C244   1.408       .  A
C243        C250   1.445       .  S
C244        C245   1.409       .  A
C245        C594   1.415       .  A
C245        H248   1.084       .  S
C246        C593   1.415       .  A
C246        C249   1.443       .  S
C249        N251   1.157       .  T
C250        N252   1.157       .  T
C253        C254   1.406       .  A
C253        C258   1.406       .  A
C254        C255   1.409       .  A
C254        H259   1.084       .  S
C255        C256   1.418       .  A
C255        C262   1.443       .  S
C256        C257   1.412       .  A
C257        C258   1.397       .  A
C257        H260   1.084       .  S
C258        C261   1.446       .  S
C261        N263   1.157       .  T
C262        N264   1.157       .  T
C265        C266   1.397       .  A
C265        C270   1.410       .  A
C266        C267   1.402       .  A
C266        H271   1.085       .  S
C267        C268   1.422       .  A
C267        C274   1.445       .  S
C268        C269   1.407   1_554  A
C269        C270   1.400   1_556  A
C269        H620   1.084       .  S
C270        C621   1.445   1_554  S
H272        C617   1.084       .  S
C273        C618   1.445       .  S
C273        N275   1.157       .  T
C274        N276   1.157       .  T
C277        C278   1.411       .  A
C277        C282   1.420       .  A
C278        C279   1.403       .  A
C278        H283   1.084       .  S
C279        C280   1.412       .  A
C279        C286   1.446       .  S
C280        C281   1.407       .  A
C281        C282   1.412       .  A
C281        H284   1.085       .  S
C282        C285   1.442       .  S
C285        N287   1.157       .  T
C286        N288   1.157       .  T
C289        C290   1.416       .  A
C289        C294   1.415       .  A
C290        C291   1.400       .  A
C290        H295   1.084       .  S
C291        C292   1.403       .  A
C291        C298   1.444       .  S
C292        C293   1.408       .  A
C293        C294   1.408       .  A
C293        H296   1.085       .  S
C294        C297   1.443       .  S
C297        N299   1.157       .  T
C298        N300   1.157       .  T
C301        C302   1.399       .  A
C301        C306   1.423       .  A
C302        C303   1.404       .  A
C302        H307   1.085       .  S
C303        C304   1.422       .  A
C303        C310   1.444       .  S
C304        C380   1.483       .  S
C304        C305   1.395       .  A
C305        C306   1.397       .  A
C305        H308   1.086       .  S
C306        C309   1.443       .  S
C309        N311   1.156       .  T
C310        N312   1.157       .  T
C313        C314   1.402       .  A
C313        C318   1.428       .  A
C314        C315   1.402       .  A
C314        H319   1.085       .  S
C315        C316   1.416       .  A
C315        C322   1.443       .  S
C316        C317   1.394       .  A
C317        C318   1.401       .  A
C317        H320   1.085       .  S
C318        C321   1.445       .  S
C321        N323   1.158       .  T
C322        N324   1.157       .  T
C325        C326   1.416       .  A
C325        C330   1.417       .  A
C326        C327   1.397       .  A
C326        H331   1.083       .  S
C327        C328   1.402       .  A
C327        C334   1.445       .  S
C328        C329   1.409       .  A
C329        C330   1.412       .  A
C329        H332   1.081       .  S
C330        C333   1.443       .  S
C333        N683   1.157       .  T
C334        N336   1.157       .  T
N335        C681   1.157   1_554  T
C337        C338   1.406       .  A
C337        C342   1.423       .  A
C338        C339   1.403       .  A
C338        H343   1.085       .  S
C339        C340   1.411       .  A
C339        C346   1.444       .  S
C340        C341   1.400       .  A
C341        C342   1.406       .  A
C341        H344   1.085       .  S
C342        C345   1.445       .  S
C345        N347   1.157       .  T
C346        N348   1.157       .  T
Fe349       O365   2.043       .  S
Fe349       O355   2.132       .  S
Fe349       O362   2.150       .  S
Fe349       O354   2.057       .  S
Fe349       O360   1.922       .  S
Fe350       O353   2.032       .  S
Fe350       O357   2.143       .  S
Fe350       O361   2.022       .  S
Fe350       O366   2.132       .  S
Fe350       O360   1.930       .  S
Fe351       O369   2.145       .  S
Fe351       O356   2.025       .  S
Fe351       O363   2.024       .  S
Fe351       O352   2.105       .  S
Fe351       O360   1.916       .  S
O352        C359   1.276       .  A
O353        C367   1.270       .  A
O354        C359   1.268       .  A
O355        C358   1.288       .  A
O356        C368   1.253       .  A
O357        C370   1.283       .  A
C358        O363   1.267       .  A
C358        C664   1.479       .  S
C359        C688   1.481       .  S
O361        C364   1.262       .  A
O362        C364   1.287       .  A
C364        C637   1.500       .  S
O365        C370   1.267       .  A
O366        C368   1.276       .  A
C367        O369   1.286       .  A
C367        C676   1.479       .  S
C368        C649   1.486       .  S
C370        C625   1.508       .  S
Fe371       O387   2.039       .  S
Fe371       O377   2.125       .  S
Fe371       O384   2.133       .  S
Fe371       O376   2.033       .  S
Fe371       O382   1.913       .  S
Fe372       O375   2.015       .  S
Fe372       O379   2.148       .  S
Fe372       O383   2.016       .  S
Fe372       O388   2.136       .  S
Fe372       O382   1.924       .  S
Fe373       O391   2.152       .  S
Fe373       O378   2.023       .  S
Fe373       O385   2.025       .  S
Fe373       O374   2.112       .  S
Fe373       O382   1.910       .  S
O374        C381   1.279       .  A
O375        C389   1.266       .  A
O376        C381   1.264       .  A
O377        C380   1.286       .  A
O378        C390   1.251       .  A
O379        C392   1.283       .  A
C380        O385   1.266       .  A
C381        C613   1.471       .  S
O383        C386   1.260       .  A
O384        C386   1.286       .  A
C386        C577   1.485       .  S
O387        C392   1.266       .  A
O388        C390   1.277       .  A
C389        O391   1.289       .  A
C389        C601   1.476       .  S
C390        C661   1.493       .  S
C392        C589   1.509       .  S
Fe393       O409   2.021       .  S
Fe393       O399   2.118       .  S
Fe393       O406   2.130       .  S
Fe393      O1094   2.030       .  S
Fe394       O397   2.023       .  S
Fe394       O405   2.026       .  S
Fe394       O410   2.148       .  S
Fe394       O404   1.920       .  S
Fe395       O413   2.158       .  S
Fe395      O1096   2.020   1_545  S
Fe395       O744   2.133   1_545  S
Fe395       O404   1.910       .  S
O396       Fe743   2.133   1_556  S
O396        C403   1.284       .  A
O397        C411   1.264       .  A
O398      Fe1089   2.033       .  S
O398        C403   1.264       .  A
O399        C402   1.281       .  A
O400      Fe1091   2.020       .  S
O400       C1108   1.257       .  A
O401        C414   1.286       .  A
C402        O407   1.264       .  A
C402       C1237   1.475       .  S
C403        C568   1.475       .  S
O405        C408   1.261       .  A
C408        C616   1.490       .  S
O409        C414   1.263       .  A
O410        C412   1.282       .  A
C411        O413   1.289       .  A
C411        C553   1.488       .  S
C412       O1096   1.257   1_545  A
C412        C532   1.492   1_545  S
C414        C673   1.503       .  S
Fe415       O431   2.027       .  S
Fe415       O421   2.137       .  S
Fe415       O428   2.144       .  S
Fe415       O420   2.042       .  S
Fe415       O426   1.909       .  S
Fe416       O419   2.032       .  S
Fe416       O423   2.137       .  S
Fe416       O427   2.029       .  S
Fe416       O432   2.140       .  S
Fe416       O426   1.923       .  S
Fe417       O435   2.145       .  S
Fe417       O422   2.020       .  S
Fe417       O429   2.023       .  S
Fe417      O1114   2.118       .  S
Fe417       O426   1.913       .  S
O418      Fe1113   2.118       .  S
O418       C1121   1.280       .  A
O419        C433   1.265       .  A
O420        C425   1.265       .  A
O421        C424   1.287       .  A
O422        C434   1.257       .  A
O423        C436   1.282       .  A
C424        O429   1.265       .  A
C424        C529   1.485       .  S
C425       O1114   1.280       .  A
C425       C1213   1.475       .  S
O427        C430   1.265       .  A
O428        C430   1.288       .  A
C430        C685   1.496       .  S
O431        C436   1.263       .  A
O432        C434   1.282       .  A
C433        O435   1.285       .  A
C433        C505   1.479       .  S
C434        C544   1.488       .  S
C436        C604   1.499       .  S
Fe437       O453   2.034       .  S
Fe437       O443   2.117       .  S
Fe437       O450   2.134       .  S
Fe437      O1834   2.036       .  S
Fe437       O448   1.919       .  S
Fe438       O441   2.028       .  S
Fe438       O445   2.139       .  S
Fe438       O449   2.033       .  S
Fe438       O454   2.138       .  S
Fe438       O448   1.943       .  S
Fe439       O457   2.169       .  S
Fe439      O1836   2.022       .  S
Fe439       O451   2.039       .  S
Fe439      O1832   2.117   1_455  S
Fe439       O448   1.911       .  S
O440      Fe1831   2.117       .  S
O440        C447   1.282       .  A
O441        C455   1.270       .  A
O442      Fe1829   2.036       .  S
O442        C447   1.265       .  A
O443        C446   1.283       .  A
O444      Fe1831   2.022       .  S
O444       C1848   1.249       .  A
O445        C458   1.281       .  A
C446        O451   1.268       .  A
C446       C1876   1.480       .  S
C447        C640   1.482       .  S
O449        C452   1.267       .  A
O450        C452   1.286       .  A
C452        C565   1.484       .  S
O453        C458   1.264       .  A
O454        C456   1.275       .  A
C455        O457   1.293       .  A
C455        C592   1.490       .  S
C456       O1836   1.249       .  A
C458        C508   1.502       .  S
Fe459       O475   2.035       .  S
Fe459       O465   2.126       .  S
Fe459       O472   2.122       .  S
Fe459       O464   2.031       .  S
Fe459       O470   1.923       .  S
Fe460       O463   2.024       .  S
Fe460       O467   2.135       .  S
Fe460       O471   2.035       .  S
Fe460       O476   2.148       .  S
Fe460       O470   1.929       .  S
Fe461       O479   2.162       .  S
Fe461       O466   2.019       .  S
Fe461       O473   2.031       .  S
Fe461      O1854   2.109       .  S
Fe461       O470   1.917       .  S
O462      Fe1853   2.109       .  S
O462        C469   1.277       .  A
O463        C477   1.266       .  A
O464       C1861   1.262       .  A
O465        C468   1.286       .  A
O466        C478   1.250       .  A
O467        C480   1.284       .  A
C468        O473   1.269       .  A
C468        C496   1.482       .  S
C469       O1856   1.262       .  A
C469        C580   1.467   1_655  S
O471        C474   1.265       .  A
O472        C474   1.282       .  A
C474        C520   1.482       .  S
O475        C480   1.267       .  A
O476        C478   1.279       .  A
C477        O479   1.290       .  A
C477        C628   1.490       .  S
C478        C481   1.500       .  S
C480        C556   1.485       .  S
C481        C482   1.405       .  A
C481        C486   1.430       .  A
C482        C483   1.406       .  A
C482        H487   1.084       .  S
C483        C484   1.415       .  A
C483        C490   1.443       .  S
C484       C1838   1.480       .  S
C484        C485   1.394       .  A
C485        C486   1.401       .  A
C485       H1880   1.085       .  S
C486        C489   1.446       .  S
H488       C1877   1.085       .  S
C489        N491   1.158       .  T
C490        N492   1.157       .  T
C493        C494   1.403       .  A
C493       C1890   1.427   1_455  A
C494        C495   1.406       .  A
C494        H499   1.085       .  S
C495       C1888   1.418   1_455  A
C495        C502   1.444       .  S
C496       C1887   1.418       .  A
C496        C497   1.393       .  A
C497        C498   1.398       .  A
C497        H500   1.085       .  S
C498       C1885   1.427       .  A
C501        N503   1.157       .  T
C502        N504   1.157       .  T
C505        C506   1.406       .  A
C505        C510   1.405       .  A
C506        C507   1.409       .  A
C506        H511   1.084       .  S
C507        C508   1.418       .  A
C507        C514   1.443       .  S
C508        C509   1.413       .  A
C509        C510   1.399       .  A
C509        H512   1.084       .  S
C510        C513   1.444       .  S
C513        N515   1.157       .  T
C514        N516   1.157       .  T
C517       C1121   1.475   1_545  S
C517        C518   1.402       .  A
C517        C522   1.410       .  A
C518        C519   1.404       .  A
C518        H523   1.084       .  S
C519        C520   1.415       .  A
C519        C526   1.444       .  S
C520        C521   1.404       .  A
C521        C522   1.399       .  A
C521        H524   1.083       .  S
C522        C525   1.443       .  S
C525       N1223   1.157       .  T
C526        N528   1.157       .  T
N527       C1221   1.157       .  T
C529       C1226   1.411       .  A
C529        C534   1.404       .  A
C530       C1225   1.414       .  A
C530        C531   1.406   1_565  A
C530        H535   1.084       .  S
C531        C532   1.407   1_545  A
C531        C538   1.443       .  S
C532       C1229   1.414       .  A
C533       C1228   1.416       .  A
C533        C534   1.402       .  A
C533        H536   1.084       .  S
C534        C537   1.444       .  S
C537        N539   1.157       .  T
C538        N540   1.157       .  T
C541       C1098   1.476       .  S
C541        C542   1.409       .  A
C541       C1242   1.403       .  A
C542        C543   1.402       .  A
C542        H547   1.085       .  S
C543        C544   1.408       .  A
C543        C550   1.443       .  S
C544       C1241   1.416       .  A
C545       C1240   1.415       .  A
C545        C546   1.399   1_565  A
C545        H548   1.085   1_565  S
C546       C1237   1.403       .  A
C546        C549   1.445       .  S
C549        N551   1.157       .  T
C550        N552   1.157       .  T
C553        C554   1.400       .  A
C553        C558   1.422       .  A
C554        C555   1.408       .  A
C554        H559   1.084       .  S
C555        C556   1.420       .  A
C555        C562   1.444       .  S
C556        C557   1.396       .  A
C557        C558   1.401       .  A
C557        H560   1.085       .  S
C558        C561   1.445       .  S
C561        N563   1.157       .  T
C562        N564   1.157       .  T
C565        C566   1.405       .  A
C565        C570   1.415       .  A
C566        C567   1.401       .  A
C566        H571   1.084       .  S
C567        C568   1.411       .  A
C567        C574   1.443       .  S
C568        C569   1.402       .  A
C569        C570   1.403       .  A
C569        H572   1.085       .  S
C570        C573   1.444       .  S
C573        N575   1.157   1_556  T
C574        N576   1.157       .  T
C577        C578   1.404       .  A
C577        C582   1.424       .  A
C578        C579   1.398       .  A
C578        H583   1.084       .  S
C579        C580   1.410       .  A
C579        C586   1.444       .  S
C580        C581   1.396       .  A
C581        C582   1.400       .  A
C581        H584   1.084       .  S
C582        C585   1.446       .  S
C585        N587   1.158       .  T
C586        N588   1.157       .  T
C589        C594   1.420       .  A
C590        C591   1.401       .  A
C590        H595   1.084       .  S
C591        C592   1.408       .  A
C591        C598   1.445       .  S
C592        C593   1.409   1_556  A
C593        H596   1.084       .  S
C594        C597   1.443       .  S
C597        N599   1.157       .  T
C598        N600   1.157       .  T
C601        C602   1.406       .  A
C601        C606   1.406       .  A
C602        C603   1.409       .  A
C602        H607   1.084       .  S
C603        C604   1.418       .  A
C603        C610   1.443       .  S
C604        C605   1.412       .  A
C605        C606   1.397       .  A
C605        H608   1.084       .  S
C606        C609   1.446       .  S
C609        N611   1.157       .  T
C610        N612   1.157       .  T
C613        C614   1.397       .  A
C613        C618   1.410       .  A
C614        C615   1.402       .  A
C614        H619   1.085       .  S
C615        C616   1.422       .  A
C615        C622   1.445       .  S
C616        C617   1.407       .  A
C617        C618   1.400       .  A
C621        N623   1.157       .  T
C622        N624   1.157       .  T
C625        C626   1.411       .  A
C625        C630   1.420       .  A
C626        C627   1.403       .  A
C626        H631   1.084       .  S
C627        C628   1.412       .  A
C627        C634   1.446       .  S
C628        C629   1.407       .  A
C629        C630   1.412       .  A
C629        H632   1.085       .  S
C630        C633   1.442       .  S
C633        N635   1.157       .  T
C634        N636   1.157       .  T
C637        C638   1.416       .  A
C637        C642   1.415       .  A
C638        C639   1.400       .  A
C638        H643   1.084       .  S
C639        C640   1.403       .  A
C639        C646   1.444       .  S
C640        C641   1.408       .  A
C641        C642   1.408       .  A
C641        H644   1.085       .  S
C642        C645   1.443       .  S
C645        N647   1.157       .  T
C646        N648   1.157       .  T
C649        C650   1.399       .  A
C649        C654   1.423       .  A
C650        C651   1.404   1_556  A
C650        H655   1.085       .  S
C651        C652   1.422   1_554  A
C651        C658   1.444       .  S
C652        C653   1.395       .  A
C653        C654   1.397       .  A
C653        H656   1.086       .  S
C654        C657   1.443       .  S
C657        N659   1.156       .  T
C658        N660   1.157       .  T
C661        C662   1.402       .  A
C661        C666   1.428       .  A
C662        C663   1.402       .  A
C662        H667   1.085       .  S
C663        C664   1.416       .  A
C663        C670   1.443       .  S
C664        C665   1.394       .  A
C665        C666   1.401       .  A
C665        H668   1.085       .  S
C666        C669   1.445       .  S
C669        N671   1.158       .  T
C670        N672   1.157       .  T
C673        C674   1.416       .  A
C673        C678   1.417       .  A
C674        C675   1.397       .  A
C674        H679   1.083       .  S
C675        C676   1.402       .  A
C675        C682   1.445       .  S
C676        C677   1.409       .  A
C677        C678   1.412       .  A
C677        H680   1.081       .  S
C678        C681   1.443       .  S
C682        N684   1.157       .  T
C685        C686   1.406       .  A
C685        C690   1.423       .  A
C686        C687   1.403       .  A
C686        H691   1.085       .  S
C687        C688   1.411       .  A
C687        C694   1.444       .  S
C688        C689   1.400       .  A
C689        C690   1.406       .  A
C689        H692   1.085       .  S
C690        C693   1.445       .  S
C693        N695   1.157       .  T
C694        N696   1.157       .  T
Fe697       O713   2.034       .  S
Fe697       O703   2.131       .  S
Fe697       O710   2.146       .  S
Fe697       O702   2.050       .  S
Fe697       O708   1.916       .  S
Fe698       O701   2.028       .  S
Fe698       O705   2.137       .  S
Fe698       O709   2.027       .  S
Fe698       O714   2.135       .  S
Fe698       O708   1.929       .  S
Fe699       O717   2.140       .  S
Fe699       O704   2.024       .  S
Fe699       O711   2.025       .  S
Fe699       O700   2.108       .  S
Fe699       O708   1.915       .  S
O700        C707   1.277       .  A
O701        C715   1.268       .  A
O702        C707   1.267       .  A
O703        C706   1.286       .  A
O704        C716   1.254       .  A
O705        C718   1.282       .  A
C706        O711   1.266       .  A
C706       C1012   1.481       .  S
C707       C1036   1.477       .  S
O709        C712   1.265       .  A
O710        C712   1.287       .  A
C712        C985   1.501       .  S
O713        C718   1.265       .  A
O714        C716   1.278       .  A
C715        O717   1.284       .  A
C715       C1024   1.477       .  S
C716        C997   1.490       .  S
C718        C973   1.499       .  S
Fe719       O735   2.034       .  S
Fe719       O725   2.129       .  S
Fe719       O732   2.134       .  S
Fe719       O724   2.036       .  S
Fe719       O730   1.914       .  S
Fe720       O723   2.024       .  S
Fe720       O727   2.150       .  S
Fe720       O731   2.019       .  S
Fe720       O736   2.143       .  S
Fe720       O730   1.923       .  S
Fe721       O739   2.156       .  S
Fe721       O726   2.022       .  S
Fe721       O733   2.023       .  S
Fe721       O722   2.118       .  S
Fe721       O730   1.910       .  S
O722        C729   1.280       .  A
O723        C737   1.267       .  A
O724        C729   1.263       .  A
O725        C728   1.286       .  A
O726        C738   1.252       .  A
O727        C740   1.285       .  A
C728        O733   1.266       .  A
C728       C1348   1.480   1_554  S
C729        C961   1.474       .  S
O731        C734   1.260       .  A
O732        C734   1.285       .  A
C734        C925   1.488       .  S
O735        C740   1.265       .  A
O736        C738   1.279       .  A
C737        O739   1.289       .  A
C737        C949   1.480       .  S
C738       C1009   1.493       .  S
C740        C937   1.507       .  S
Fe741       O757   2.018       .  S
Fe741       O747   2.124       .  S
Fe741       O754   2.129       .  S
Fe741      O1100   1.913       .  S
Fe742       O745   2.026       .  S
Fe742      O1097   2.153   1_554  S
Fe742       O753   2.030       .  S
Fe742       O758   2.148       .  S
Fe742       O752   1.921   1_554  S
Fe743       O761   2.161       .  S
Fe743      O1103   2.026   1_554  S
Fe743       O752   1.910   1_554  S
O744        C751   1.285       .  A
O745        C759   1.264       .  A
O746        C751   1.265   1_545  A
O747        C750   1.283       .  A
O749      Fe1090   2.153       .  S
O749        C762   1.286       .  A
C750        O755   1.265       .  A
C751        C916   1.475       .  S
O752      Fe1089   1.913       .  S
O753        C756   1.262       .  A
O754       C1104   1.282       .  A
O755      Fe1091   2.026       .  S
C756       O1102   1.282   1_554  A
C756        C964   1.490       .  S
O757        C762   1.264       .  A
O758        C760   1.282       .  A
C759        O761   1.289       .  A
C759        C901   1.491       .  S
C760        C880   1.493       .  S
C762       C1021   1.500       .  S
Fe763       O779   2.030       .  S
Fe763       O769   2.134       .  S
Fe763       O776   2.141       .  S
Fe763       O768   2.041       .  S
Fe763       O774   1.909       .  S
Fe764       O767   2.027       .  S
Fe764       O771   2.140       .  S
Fe764       O775   2.028       .  S
Fe764       O780   2.138       .  S
Fe764       O774   1.926       .  S
Fe765       O783   2.150       .  S
Fe765       O770   2.021       .  S
Fe765       O777   2.029       .  S
Fe765       O774   1.914       .  S
O767        C781   1.266       .  A
O768        C773   1.265       .  A
O769        C772   1.287       .  A
O770        C782   1.256       .  A
O771        C784   1.282       .  A
C772        O777   1.266       .  A
C772        C877   1.491       .  S
O775        C778   1.264       .  A
O776        C778   1.287       .  A
C778       C1033   1.493       .  S
O779        C784   1.264       .  A
O780        C782   1.280       .  A
C781        O783   1.286       .  A
C781        C853   1.481       .  S
C782        C892   1.486       .  S
C784        C952   1.502       .  S
Fe785       O801   2.035       .  S
Fe785       O791   2.128       .  S
Fe785       O798   2.142       .  S
Fe785      O2182   2.039       .  S
Fe785       O796   1.920       .  S
Fe786       O789   2.027       .  S
Fe786       O793   2.143       .  S
Fe786       O797   2.030       .  S
Fe786       O802   2.146       .  S
Fe786       O796   1.941       .  S
Fe787       O805   2.163       .  S
Fe787      O2184   2.022       .  S
Fe787       O799   2.039       .  S
Fe787      O2180   2.113   1_455  S
Fe787       O796   1.912       .  S
O788      Fe2179   2.113       .  S
O788        C795   1.280       .  A
O789        C803   1.270       .  A
O790      Fe2177   2.039       .  S
O790        C795   1.266       .  A
O791        C794   1.285       .  A
O792      Fe2179   2.022       .  S
O792       C2196   1.249       .  A
O793        C806   1.281       .  A
C794        O799   1.268       .  A
C794       C2224   1.485       .  S
C795        C988   1.480       .  S
O797        C800   1.266       .  A
O798        C800   1.287       .  A
C800        C913   1.492       .  S
O801        C806   1.265       .  A
O802        C804   1.276       .  A
C803        O805   1.292       .  A
C803        C940   1.487       .  S
C804       O2184   1.249       .  A
C804       C1189   1.498       .  S
C806        C856   1.505       .  S
Fe807       O823   2.034       .  S
Fe807       O813   2.127       .  S
Fe807       O820   2.126       .  S
Fe807       O812   2.030       .  S
Fe807       O818   1.921       .  S
Fe808       O811   2.015       .  S
Fe808       O815   2.143       .  S
Fe808       O819   2.033       .  S
Fe808       O824   2.157       .  S
Fe808       O818   1.930       .  S
Fe809       O827   2.156       .  S
Fe809       O814   2.019       .  S
Fe809       O821   2.035       .  S
Fe809      O2202   2.104       .  S
Fe809       O818   1.915       .  S
O810      Fe2201   2.104       .  S
O810        C817   1.277       .  A
O811        C825   1.265       .  A
O812       C2209   1.263       .  A
O813        C816   1.286       .  A
O814        C826   1.249       .  A
O815        C828   1.285       .  A
C816        O821   1.269       .  A
C816        C844   1.484       .  S
C817       O2204   1.263       .  A
C817        C928   1.466   1_655  S
O819        C822   1.264       .  A
O820        C822   1.283       .  A
C822        C868   1.484       .  S
O823        C828   1.267       .  A
O824        C826   1.280       .  A
C825        O827   1.289       .  A
C825        C976   1.485       .  S
C826        C829   1.504       .  S
C828        C904   1.488       .  S
C829        C830   1.405       .  A
C829        C834   1.432       .  A
C830        C831   1.408       .  A
C830        H835   1.084       .  S
C831        C832   1.417       .  A
C831        C838   1.443       .  S
C832       C2186   1.485       .  S
C832        C833   1.394       .  A
C833        C834   1.403       .  A
C833       H2228   1.085       .  S
C834        C837   1.446       .  S
H836       C2225   1.085       .  S
C837        N839   1.158       .  T
C838        N840   1.157       .  T
C841       C1152   1.498   1_554  S
C841        C842   1.404       .  A
C841       C2238   1.428   1_455  A
C842        C843   1.407       .  A
C842        H847   1.084       .  S
C843       C2236   1.418   1_455  A
C843        C850   1.444       .  S
C844       C2235   1.418       .  A
C844        C845   1.394       .  A
C845        C846   1.400       .  A
C845        H848   1.085       .  S
C846       C2233   1.428       .  A
C846       C1197   1.445   1_554  S
C849       C1194   1.445       .  S
C849        N851   1.157       .  T
C850        N852   1.157       .  T
C853        C854   1.407       .  A
C853        C858   1.406       .  A
C854        C855   1.411       .  A
C854        H859   1.085       .  S
C855        C856   1.420       .  A
C855        C862   1.443       .  S
C856        C857   1.412       .  A
C857        C858   1.399       .  A
C857        H860   1.084       .  S
C858        C861   1.445       .  S
C861        N863   1.157       .  T
C862        N864   1.157       .  T
C865        C866   1.401       .  A
C865        C870   1.410       .  A
C866        C867   1.404       .  A
C866        H871   1.084       .  S
C867        C868   1.416       .  A
C867        C874   1.444       .  S
C868        C869   1.405       .  A
C869        C870   1.400       .  A
C869        H872   1.083       .  S
C870        C873   1.444       .  S
C874        N876   1.157       .  T
C877        C882   1.407       .  A
C878        C879   1.404       .  A
C878        H883   1.084       .  S
C879        C880   1.408       .  A
C879        C886   1.442       .  S
C881        C882   1.402       .  A
C881        H884   1.084       .  S
C882        C885   1.445       .  S
C885        N887   1.157       .  T
C886        N888   1.157       .  T
C889        C890   1.409   1_545  A
C890        C891   1.402       .  A
C890        H895   1.085       .  S
C891        C892   1.408       .  A
C891        C898   1.443       .  S
C893        C894   1.400       .  A
C893        H896   1.085       .  S
C894        C897   1.445       .  S
C897        N899   1.157       .  T
C898        N900   1.157       .  T
C901        C902   1.401       .  A
C901        C906   1.422       .  A
C902        C903   1.410       .  A
C902        H907   1.084       .  S
C903        C904   1.421       .  A
C903        C910   1.444       .  S
C904        C905   1.396       .  A
C905        C906   1.403       .  A
C905        H908   1.085       .  S
C906        C909   1.444       .  S
C909        N911   1.157       .  T
C910        N912   1.157       .  T
C913        C914   1.408       .  A
C913        C918   1.419       .  A
C914        C915   1.405       .  A
C914        H919   1.084       .  S
C915        C916   1.412       .  A
C915        C922   1.445       .  S
C916        C917   1.398       .  A
C917        C918   1.401       .  A
C917        H920   1.085       .  S
C918        C921   1.444       .  S
C921        N923   1.157       .  T
C922        N924   1.157       .  T
C925        C926   1.406       .  A
C925        C930   1.425       .  A
C926        C927   1.399       .  A
C926        H931   1.084       .  S
C927        C928   1.409       .  A
C927        C934   1.445       .  S
C928        C929   1.395       .  A
C929        C930   1.399       .  A
C929        H932   1.084       .  S
C930        C933   1.446       .  S
C933        N935   1.158       .  T
C934        N936   1.157   1_455  T
C937       C1286   1.414   1_554  A
C937        C942   1.420       .  A
C938       C1285   1.414       .  A
C938        C939   1.402       .  A
C938        H943   1.084       .  S
C939        C940   1.408       .  A
C939        C946   1.445       .  S
C940        C941   1.407       .  A
C941       C1290   1.412       .  A
C941        H944   1.084       .  S
C942       C1289   1.412       .  A
C942        C945   1.443       .  S
C945        N947   1.157       .  T
C946        N948   1.157       .  T
C949        C950   1.407       .  A
C949        C954   1.405       .  A
C950        C951   1.410       .  A
C950        H955   1.084       .  S
C951        C952   1.418       .  A
C951        C958   1.443       .  S
C952        C953   1.413       .  A
C953        C954   1.398       .  A
C953        H956   1.084       .  S
C954        C957   1.444       .  S
C957        N959   1.157       .  T
C958        N960   1.157       .  T
C961        C962   1.399       .  A
C961        C966   1.411       .  A
C962        C963   1.404       .  A
C962        H967   1.084       .  S
C963        C964   1.420       .  A
C963        C970   1.444       .  S
C964        C965   1.406   1_554  A
C965        C966   1.401   1_556  A
C965       H1316   1.084       .  S
C966       C1317   1.445   1_554  S
H968       C1313   1.084       .  S
C969       C1314   1.445       .  S
C969        N971   1.157       .  T
C970        N972   1.157       .  T
C973        C974   1.408       .  A
C973        C978   1.418       .  A
C974        C975   1.398       .  A
C974        H979   1.085       .  S
C975        C976   1.413       .  A
C975        C982   1.446       .  S
C976        C977   1.406       .  A
C977        C978   1.410       .  A
C977        H980   1.085       .  S
C978        C981   1.442       .  S
C981        N983   1.157       .  T
C982        N984   1.157       .  T
C985        C986   1.416       .  A
C985        C990   1.417       .  A
C986        C987   1.401       .  A
C986        H991   1.084       .  S
C987        C988   1.404       .  A
C987        C994   1.445       .  S
C988        C989   1.406       .  A
C989        C990   1.407       .  A
C989        H992   1.085       .  S
C990        C993   1.443       .  S
C993        N995   1.157       .  T
C994        N996   1.157       .  T
C997        C998   1.401       .  A
C997       C1002   1.426       .  A
C998        C999   1.403       .  A
C998       H1003   1.085       .  S
C999       C1000   1.419       .  A
C999       C1006   1.444       .  S
C1000      C1076   1.480       .  S
C1000      C1001   1.394       .  A
C1001      C1002   1.399       .  A
C1001      H1004   1.086       .  S
C1002      C1005   1.444       .  S
C1005      N1007   1.157       .  T
C1006      N1008   1.157       .  T
C1009      C1010   1.401       .  A
C1009      C1014   1.428       .  A
C1010      C1011   1.403       .  A
C1010      H1015   1.085       .  S
C1011      C1012   1.418       .  A
C1011      C1018   1.443       .  S
C1012      C1013   1.394       .  A
C1013      C1014   1.401       .  A
C1013      H1016   1.085       .  S
C1014      C1017   1.445       .  S
C1017      N1019   1.157       .  T
C1018      N1020   1.157       .  T
C1021      C1022   1.415       .  A
C1021      C1026   1.417       .  A
C1022      C1023   1.395       .  A
C1022      H1027   1.082       .  S
C1023      C1024   1.404       .  A
C1023      C1030   1.446       .  S
C1024      C1025   1.408       .  A
C1025      C1026   1.411       .  A
C1025      H1028   1.080       .  S
C1026      C1029   1.443       .  S
C1029      N1379   1.157       .  T
C1030      N1032   1.157       .  T
N1031      C1377   1.157   1_554  T
C1033      C1034   1.406       .  A
C1033      C1038   1.422       .  A
C1034      C1035   1.402       .  A
C1034      H1039   1.085       .  S
C1035      C1036   1.411       .  A
C1035      C1042   1.444       .  S
C1036      C1037   1.399       .  A
C1037      C1038   1.405       .  A
C1037      H1040   1.085       .  S
C1038      C1041   1.444       .  S
C1041      N1043   1.157       .  T
C1042      N1044   1.157       .  T
Fe1045     O1061   2.034       .  S
Fe1045     O1051   2.131       .  S
Fe1045     O1058   2.146       .  S
Fe1045     O1050   2.050       .  S
Fe1045     O1056   1.916       .  S
Fe1046     O1049   2.028       .  S
Fe1046     O1053   2.137       .  S
Fe1046     O1057   2.027       .  S
Fe1046     O1062   2.135       .  S
Fe1046     O1056   1.929       .  S
Fe1047     O1065   2.140       .  S
Fe1047     O1052   2.024       .  S
Fe1047     O1059   2.025       .  S
Fe1047     O1048   2.108       .  S
Fe1047     O1056   1.915       .  S
O1048      C1055   1.277       .  A
O1049      C1063   1.268       .  A
O1050      C1055   1.267       .  A
O1051      C1054   1.286       .  A
O1052      C1064   1.254       .  A
O1053      C1066   1.282       .  A
C1054      O1059   1.266       .  A
C1054      C1360   1.481       .  S
C1055      C1384   1.477       .  S
O1057      C1060   1.265       .  A
O1058      C1060   1.287       .  A
C1060      C1333   1.501       .  S
O1061      C1066   1.265       .  A
O1062      C1064   1.278       .  A
C1063      O1065   1.284       .  A
C1063      C1372   1.477       .  S
C1064      C1345   1.490       .  S
C1066      C1321   1.499       .  S
Fe1067     O1083   2.034       .  S
Fe1067     O1073   2.129       .  S
Fe1067     O1080   2.134       .  S
Fe1067     O1072   2.036       .  S
Fe1067     O1078   1.914       .  S
Fe1068     O1071   2.024       .  S
Fe1068     O1075   2.150       .  S
Fe1068     O1079   2.019       .  S
Fe1068     O1084   2.143       .  S
Fe1068     O1078   1.923       .  S
Fe1069     O1087   2.156       .  S
Fe1069     O1074   2.022       .  S
Fe1069     O1081   2.023       .  S
Fe1069     O1070   2.118       .  S
Fe1069     O1078   1.910       .  S
O1070      C1077   1.280       .  A
O1071      C1085   1.267       .  A
O1072      C1077   1.263       .  A
O1073      C1076   1.286       .  A
O1074      C1086   1.252       .  A
O1075      C1088   1.285       .  A
C1076      O1081   1.266       .  A
C1077      C1309   1.474       .  S
O1079      C1082   1.260       .  A
O1080      C1082   1.285       .  A
C1082      C1273   1.488       .  S
O1083      C1088   1.265       .  A
O1084      C1086   1.279       .  A
C1085      O1087   1.289       .  A
C1085      C1297   1.480       .  S
C1086      C1357   1.493       .  S
C1088      C1285   1.507       .  S
Fe1089     O1105   2.018       .  S
Fe1089     O1095   2.124       .  S
Fe1089     O1102   2.129       .  S
Fe1090     O1093   2.026       .  S
Fe1090     O1101   2.030       .  S
Fe1090     O1106   2.148       .  S
Fe1090     O1100   1.921       .  S
Fe1091     O1109   2.161       .  S
Fe1091     O1100   1.910       .  S
O1092      C1099   1.285       .  A
O1093      C1107   1.264       .  A
O1094      C1099   1.265   1_545  A
O1095      C1098   1.283       .  A
O1097      C1110   1.286       .  A
C1098      O1103   1.265       .  A
C1099      C1264   1.475       .  S
O1101      C1104   1.262       .  A
C1104      C1312   1.490       .  S
O1105      C1110   1.264       .  A
O1106      C1108   1.282       .  A
C1107      O1109   1.289       .  A
C1107      C1249   1.491       .  S
C1108      C1228   1.493       .  S
C1110      C1369   1.500       .  S
Fe1111     O1127   2.030       .  S
Fe1111     O1117   2.134       .  S
Fe1111     O1124   2.141       .  S
Fe1111     O1116   2.041       .  S
Fe1111     O1122   1.909       .  S
Fe1112     O1115   2.027       .  S
Fe1112     O1119   2.140       .  S
Fe1112     O1123   2.028       .  S
Fe1112     O1128   2.138       .  S
Fe1112     O1122   1.926       .  S
Fe1113     O1131   2.150       .  S
Fe1113     O1118   2.021       .  S
Fe1113     O1125   2.029       .  S
Fe1113     O1122   1.914       .  S
O1115      C1129   1.266       .  A
O1116      C1121   1.265       .  A
O1117      C1120   1.287       .  A
O1118      C1130   1.256       .  A
O1119      C1132   1.282       .  A
C1120      O1125   1.266       .  A
C1120      C1225   1.491       .  S
O1123      C1126   1.264       .  A
O1124      C1126   1.287       .  A
C1126      C1381   1.493       .  S
O1127      C1132   1.264       .  A
O1128      C1130   1.280       .  A
C1129      O1131   1.286       .  A
C1129      C1201   1.481       .  S
C1130      C1240   1.486       .  S
C1132      C1300   1.502       .  S
Fe1133     O1149   2.035       .  S
Fe1133     O1139   2.128       .  S
Fe1133     O1146   2.142       .  S
Fe1133     O2530   2.039       .  S
Fe1133     O1144   1.920       .  S
Fe1134     O1137   2.027       .  S
Fe1134     O1141   2.143       .  S
Fe1134     O1145   2.030       .  S
Fe1134     O1150   2.146       .  S
Fe1134     O1144   1.941       .  S
Fe1135     O1153   2.163       .  S
Fe1135     O2532   2.022       .  S
Fe1135     O1147   2.039       .  S
Fe1135     O2528   2.113   1_455  S
Fe1135     O1144   1.912       .  S
O1136     Fe2527   2.113       .  S
O1136      C1143   1.280       .  A
O1137      C1151   1.270       .  A
O1138     Fe2525   2.039       .  S
O1138      C1143   1.266       .  A
O1139      C1142   1.285       .  A
O1140     Fe2527   2.022       .  S
O1140      C2544   1.249       .  A
O1141      C1154   1.281       .  A
C1142      O1147   1.268       .  A
C1142      C2572   1.485       .  S
C1143      C1336   1.480       .  S
O1145      C1148   1.266       .  A
O1146      C1148   1.287       .  A
C1148      C1261   1.492       .  S
O1149      C1154   1.265       .  A
O1150      C1152   1.276       .  A
C1151      O1153   1.292       .  A
C1151      C1288   1.487       .  S
C1152      O2532   1.249       .  A
C1154      C1204   1.505       .  S
Fe1155     O1171   2.034       .  S
Fe1155     O1161   2.127       .  S
Fe1155     O1168   2.126       .  S
Fe1155     O1160   2.030       .  S
Fe1155     O1166   1.921       .  S
Fe1156     O1159   2.015       .  S
Fe1156     O1163   2.143       .  S
Fe1156     O1167   2.033       .  S
Fe1156     O1172   2.157       .  S
Fe1156     O1166   1.930       .  S
Fe1157     O1175   2.156       .  S
Fe1157     O1162   2.019       .  S
Fe1157     O1169   2.035       .  S
Fe1157     O2550   2.104       .  S
Fe1157     O1166   1.915       .  S
O1158     Fe2549   2.104       .  S
O1158      C1165   1.277       .  A
O1159      C1173   1.265       .  A
O1160      C2557   1.263       .  A
O1161      C1164   1.286       .  A
O1162      C1174   1.249       .  A
O1163      C1176   1.285       .  A
C1164      O1169   1.269       .  A
C1164      C1192   1.484       .  S
C1165      O2552   1.263       .  A
C1165      C1276   1.466   1_655  S
O1167      C1170   1.265       .  A
O1168      C1170   1.283       .  A
C1170      C1216   1.484       .  S
O1171      C1176   1.267       .  A
O1172      C1174   1.280       .  A
C1173      O1175   1.289       .  A
C1173      C1324   1.485       .  S
C1174      C1177   1.504       .  S
C1176      C1252   1.488       .  S
C1177      C1178   1.405       .  A
C1177      C1182   1.432       .  A
C1178      C1179   1.408       .  A
C1178      H1183   1.084       .  S
C1179      C1180   1.417       .  A
C1179      C1186   1.443       .  S
C1180      C2534   1.485       .  S
C1180      C1181   1.394       .  A
C1181      C1182   1.403       .  A
C1181      H2576   1.085       .  S
C1182      C1185   1.446       .  S
H1184      C2573   1.085       .  S
C1185      N1187   1.158       .  T
C1186      N1188   1.157       .  T
C1189      C1190   1.404       .  A
C1189      C2586   1.428   1_455  A
C1190      C1191   1.407       .  A
C1190      H1195   1.084       .  S
C1191      C2584   1.418   1_455  A
C1191      C1198   1.444       .  S
C1192      C2583   1.418       .  A
C1192      C1193   1.394       .  A
C1193      C1194   1.400       .  A
C1193      H1196   1.085       .  S
C1194      C2581   1.428       .  A
C1197      N1199   1.157       .  T
C1198      N1200   1.157       .  T
C1201      C1202   1.407       .  A
C1201      C1206   1.406       .  A
C1202      C1203   1.411       .  A
C1202      H1207   1.085       .  S
C1203      C1204   1.420       .  A
C1203      C1210   1.443       .  S
C1204      C1205   1.412       .  A
C1205      C1206   1.399       .  A
C1205      H1208   1.084       .  S
C1206      C1209   1.445       .  S
C1209      N1211   1.157       .  T
C1210      N1212   1.157       .  T
C1213      C1214   1.401       .  A
C1213      C1218   1.410       .  A
C1214      C1215   1.404       .  A
C1214      H1219   1.084       .  S
C1215      C1216   1.416       .  A
C1215      C1222   1.444       .  S
C1216      C1217   1.405       .  A
C1217      C1218   1.400       .  A
C1217      H1220   1.083       .  S
C1218      C1221   1.444       .  S
C1222      N1224   1.157       .  T
C1225      C1230   1.407       .  A
C1226      C1227   1.404       .  A
C1226      H1231   1.084       .  S
C1227      C1228   1.408       .  A
C1227      C1234   1.442       .  S
C1229      C1230   1.402       .  A
C1229      H1232   1.084       .  S
C1230      C1233   1.445       .  S
C1233      N1235   1.157       .  T
C1234      N1236   1.157       .  T
C1237      C1238   1.409   1_545  A
C1238      C1239   1.402       .  A
C1238      H1243   1.085       .  S
C1239      C1240   1.408       .  A
C1239      C1246   1.443       .  S
C1241      C1242   1.400       .  A
C1241      H1244   1.085       .  S
C1242      C1245   1.445       .  S
C1245      N1247   1.157       .  T
C1246      N1248   1.157       .  T
C1249      C1250   1.401       .  A
C1249      C1254   1.422       .  A
C1250      C1251   1.410       .  A
C1250      H1255   1.084       .  S
C1251      C1252   1.421       .  A
C1251      C1258   1.444       .  S
C1252      C1253   1.396       .  A
C1253      C1254   1.403       .  A
C1253      H1256   1.085       .  S
C1254      C1257   1.444       .  S
C1257      N1259   1.157       .  T
C1258      N1260   1.157       .  T
C1261      C1262   1.408       .  A
C1261      C1266   1.419       .  A
C1262      C1263   1.405       .  A
C1262      H1267   1.084       .  S
C1263      C1264   1.412       .  A
C1263      C1270   1.445       .  S
C1264      C1265   1.398       .  A
C1265      C1266   1.401       .  A
C1265      H1268   1.085   1_556  S
C1266      C1269   1.444       .  S
C1269      N1271   1.157   1_556  T
C1270      N1272   1.157       .  T
C1273      C1274   1.406       .  A
C1273      C1278   1.425       .  A
C1274      C1275   1.399       .  A
C1274      H1279   1.084       .  S
C1275      C1276   1.409       .  A
C1275      C1282   1.445       .  S
C1276      C1277   1.395       .  A
C1277      C1278   1.399       .  A
C1277      H1280   1.084       .  S
C1278      C1281   1.446       .  S
C1281      N1283   1.158       .  T
C1282      N1284   1.157   1_455  T
C1285      C1290   1.420       .  A
C1286      C1287   1.402       .  A
C1286      H1291   1.084       .  S
C1287      C1288   1.408       .  A
C1287      C1294   1.445       .  S
C1288      C1289   1.407   1_556  A
C1289      H1292   1.084       .  S
C1290      C1293   1.443       .  S
C1293      N1295   1.157       .  T
C1294      N1296   1.157       .  T
C1297      C1298   1.407       .  A
C1297      C1302   1.405       .  A
C1298      C1299   1.410       .  A
C1298      H1303   1.084       .  S
C1299      C1300   1.418       .  A
C1299      C1306   1.443       .  S
C1300      C1301   1.413       .  A
C1301      C1302   1.398       .  A
C1301      H1304   1.084       .  S
C1302      C1305   1.444       .  S
C1305      N1307   1.157       .  T
C1306      N1308   1.157       .  T
C1309      C1310   1.399       .  A
C1309      C1314   1.411       .  A
C1310      C1311   1.404       .  A
C1310      H1315   1.084       .  S
C1311      C1312   1.420       .  A
C1311      C1318   1.444       .  S
C1312      C1313   1.406       .  A
C1313      C1314   1.401       .  A
C1317      N1319   1.157       .  T
C1318      N1320   1.157       .  T
C1321      C1322   1.408       .  A
C1321      C1326   1.418       .  A
C1322      C1323   1.398       .  A
C1322      H1327   1.085       .  S
C1323      C1324   1.413       .  A
C1323      C1330   1.446       .  S
C1324      C1325   1.406       .  A
C1325      C1326   1.410       .  A
C1325      H1328   1.085       .  S
C1326      C1329   1.442       .  S
C1329      N1331   1.157       .  T
C1330      N1332   1.157       .  T
C1333      C1334   1.416       .  A
C1333      C1338   1.417       .  A
C1334      C1335   1.401       .  A
C1334      H1339   1.084       .  S
C1335      C1336   1.404       .  A
C1335      C1342   1.445       .  S
C1336      C1337   1.406       .  A
C1337      C1338   1.407       .  A
C1337      H1340   1.085       .  S
C1338      C1341   1.443       .  S
C1341      N1343   1.157       .  T
C1342      N1344   1.157       .  T
C1345      C1346   1.401       .  A
C1345      C1350   1.426       .  A
C1346      C1347   1.403   1_556  A
C1346      H1351   1.085       .  S
C1347      C1348   1.419   1_554  A
C1347      C1354   1.444       .  S
C1348      C1349   1.394       .  A
C1349      C1350   1.399       .  A
C1349      H1352   1.086       .  S
C1350      C1353   1.444       .  S
C1353      N1355   1.157       .  T
C1354      N1356   1.157       .  T
C1357      C1358   1.401       .  A
C1357      C1362   1.428       .  A
C1358      C1359   1.403       .  A
C1358      H1363   1.085       .  S
C1359      C1360   1.418       .  A
C1359      C1366   1.443       .  S
C1360      C1361   1.394       .  A
C1361      C1362   1.401       .  A
C1361      H1364   1.085       .  S
C1362      C1365   1.445       .  S
C1365      N1367   1.157       .  T
C1366      N1368   1.157       .  T
C1369      C1370   1.415       .  A
C1369      C1374   1.417       .  A
C1370      C1371   1.395       .  A
C1370      H1375   1.082       .  S
C1371      C1372   1.404       .  A
C1371      C1378   1.446       .  S
C1372      C1373   1.408       .  A
C1373      C1374   1.411       .  A
C1373      H1376   1.080       .  S
C1374      C1377   1.443       .  S
C1378      N1380   1.157       .  T
C1381      C1382   1.406       .  A
C1381      C1386   1.422       .  A
C1382      C1383   1.402       .  A
C1382      H1387   1.085       .  S
C1383      C1384   1.411       .  A
C1383      C1390   1.444       .  S
C1384      C1385   1.399       .  A
C1385      C1386   1.405       .  A
C1385      H1388   1.085       .  S
C1386      C1389   1.444       .  S
C1389      N1391   1.157       .  T
C1390      N1392   1.157       .  T
Fe1393     O1409   2.043       .  S
Fe1393     O1399   2.132       .  S
Fe1393     O1406   2.150       .  S
Fe1393     O1398   2.057       .  S
Fe1393     O1404   1.922       .  S
Fe1394     O1397   2.032       .  S
Fe1394     O1401   2.143       .  S
Fe1394     O1405   2.022       .  S
Fe1394     O1410   2.132       .  S
Fe1394     O1404   1.930       .  S
Fe1395     O1413   2.145       .  S
Fe1395     O1400   2.025       .  S
Fe1395     O1407   2.024       .  S
Fe1395     O1396   2.105       .  S
Fe1395     O1404   1.916       .  S
O1396      C1403   1.276       .  A
O1397      C1411   1.270       .  A
O1398      C1403   1.268       .  A
O1399      C1402   1.288       .  A
O1400      C1412   1.253       .  A
O1401      C1414   1.283       .  A
C1402      O1407   1.267       .  A
C1402      C1708   1.479       .  S
C1403      C1732   1.481       .  S
O1405      C1408   1.262       .  A
O1406      C1408   1.287       .  A
C1408      C1681   1.500       .  S
O1409      C1414   1.267       .  A
O1410      C1412   1.276       .  A
C1411      O1413   1.286       .  A
C1411      C1720   1.479       .  S
C1412      C1693   1.486       .  S
C1414      C1669   1.508       .  S
Fe1415     O1431   2.039       .  S
Fe1415     O1421   2.125       .  S
Fe1415     O1428   2.133       .  S
Fe1415     O1420   2.033       .  S
Fe1415     O1426   1.913       .  S
Fe1416     O1419   2.015       .  S
Fe1416     O1423   2.148       .  S
Fe1416     O1427   2.016       .  S
Fe1416     O1432   2.136       .  S
Fe1416     O1426   1.924       .  S
Fe1417     O1435   2.152       .  S
Fe1417     O1422   2.023       .  S
Fe1417     O1429   2.025       .  S
Fe1417     O1418   2.112       .  S
Fe1417     O1426   1.910       .  S
O1418      C1425   1.279       .  A
O1419      C1433   1.266       .  A
O1420      C1425   1.264       .  A
O1421      C1424   1.286       .  A
O1422      C1434   1.251       .  A
O1423      C1436   1.283       .  A
C1424      O1429   1.266       .  A
C1424      C2044   1.483   1_554  S
C1425      C1657   1.471       .  S
O1427      C1430   1.260       .  A
O1428      C1430   1.286       .  A
C1430      C1621   1.485       .  S
O1431      C1436   1.266       .  A
O1432      C1434   1.277       .  A
C1433      O1435   1.289       .  A
C1433      C1645   1.476       .  S
C1434      C1705   1.493       .  S
C1436      C1633   1.509       .  S
Fe1437     O1453   2.021       .  S
Fe1437     O1443   2.118       .  S
Fe1437     O1450   2.130       .  S
Fe1437     O2138   2.030       .  S
Fe1437     O1796   1.916       .  S
Fe1438     O1441   2.023       .  S
Fe1438     O1793   2.157   1_554  S
Fe1438     O1449   2.026       .  S
Fe1438     O1454   2.148       .  S
Fe1438     O1448   1.920   1_554  S
Fe1439     O1457   2.158       .  S
Fe1439     O2140   2.020   1_545  S
Fe1439     O1799   2.025   1_554  S
Fe1439     O2484   2.133   1_544  S
Fe1439     O1448   1.910   1_554  S
O1440     Fe2483   2.133       .  S
O1440      C1447   1.284       .  A
O1441      C1455   1.264       .  A
O1442     Fe2133   2.033       .  S
O1442      C1447   1.264       .  A
O1443      C1446   1.281       .  A
O1444     Fe2135   2.020       .  S
O1444      C2152   1.257       .  A
O1445     Fe1786   2.157       .  S
O1445      C1458   1.286       .  A
C1446      O1451   1.264       .  A
C1446      C2281   1.475       .  S
C1447      C1612   1.475       .  S
O1448     Fe1785   1.916       .  S
O1449      C1452   1.261       .  A
O1450      C1800   1.283       .  A
O1451     Fe1787   2.025       .  S
C1452      O1798   1.283   1_554  A
C1452      C1660   1.490       .  S
O1453      C1458   1.263       .  A
O1454      C1456   1.282       .  A
C1455      O1457   1.289       .  A
C1455      C1597   1.488       .  S
C1456      O2140   1.257   1_545  A
C1456      C1576   1.492   1_545  S
C1458      C1717   1.503       .  S
Fe1459     O1475   2.027       .  S
Fe1459     O1465   2.137       .  S
Fe1459     O1472   2.144       .  S
Fe1459     O1464   2.042       .  S
Fe1459     O1470   1.909       .  S
Fe1460     O1463   2.032       .  S
Fe1460     O1467   2.137       .  S
Fe1460     O1471   2.029       .  S
Fe1460     O1476   2.140       .  S
Fe1460     O1470   1.923       .  S
Fe1461     O1479   2.145       .  S
Fe1461     O1466   2.020       .  S
Fe1461     O1473   2.023       .  S
Fe1461     O2158   2.118       .  S
Fe1461     O1470   1.913       .  S
O1462     Fe2157   2.118       .  S
O1462      C2165   1.280       .  A
O1463      C1477   1.265       .  A
O1464      C1469   1.265       .  A
O1465      C1468   1.287       .  A
O1466      C1478   1.257       .  A
O1467      C1480   1.282       .  A
C1468      O1473   1.265       .  A
C1468      C1573   1.485       .  S
C1469      O2158   1.280       .  A
C1469      C2257   1.475       .  S
O1471      C1474   1.265       .  A
O1472      C1474   1.288       .  A
C1474      C1729   1.496       .  S
O1475      C1480   1.263       .  A
O1476      C1478   1.282       .  A
C1477      O1479   1.285       .  A
C1477      C1549   1.479       .  S
C1478      C1588   1.488       .  S
C1480      C1648   1.499       .  S
Fe1481     O1497   2.034       .  S
Fe1481     O1487   2.117       .  S
Fe1481     O1494   2.134       .  S
Fe1481     O1492   1.919       .  S
Fe1482     O1485   2.028       .  S
Fe1482     O1489   2.139       .  S
Fe1482     O1493   2.033       .  S
Fe1482     O1498   2.138       .  S
Fe1482     O1492   1.943       .  S
Fe1483     O1501   2.169       .  S
Fe1483     O1495   2.039       .  S
Fe1483     O1492   1.911       .  S
O1484      C1491   1.282       .  A
O1485      C1499   1.270       .  A
O1486      C1491   1.265   1_455  A
O1487      C1490   1.283       .  A
O1489      C1502   1.281       .  A
C1490      O1495   1.268       .  A
C1491      C1684   1.482       .  S
O1493      C1496   1.267       .  A
O1494      C1496   1.286       .  A
C1496      C1609   1.484       .  S
O1497      C1502   1.264       .  A
O1498      C1500   1.275       .  A
C1499      O1501   1.293       .  A
C1499      C1636   1.490       .  S
C1500      C1885   1.494       .  S
C1502      C1552   1.502       .  S
Fe1503     O1519   2.035       .  S
Fe1503     O1509   2.126       .  S
Fe1503     O1516   2.122       .  S
Fe1503     O1508   2.031       .  S
Fe1503     O1514   1.923       .  S
Fe1504     O1507   2.024       .  S
Fe1504     O1511   2.135       .  S
Fe1504     O1515   2.035       .  S
Fe1504     O1520   2.148       .  S
Fe1504     O1514   1.929       .  S
Fe1505     O1523   2.162       .  S
Fe1505     O1510   2.019       .  S
Fe1505     O1517   2.031       .  S
Fe1505     O1514   1.917       .  S
O1506      C1513   1.277       .  A
O1507      C1521   1.266       .  A
O1509      C1512   1.286       .  A
O1510      C1522   1.250       .  A
O1511      C1524   1.284       .  A
C1512      O1517   1.269       .  A
C1512      C1540   1.482       .  S
C1513      C1624   1.467       .  S
O1515      C1518   1.265       .  A
O1516      C1518   1.282       .  A
C1518      C1564   1.482       .  S
O1519      C1524   1.267       .  A
O1520      C1522   1.279       .  A
C1521      O1523   1.290       .  A
C1521      C1672   1.490       .  S
C1522      C1525   1.500       .  S
C1524      C1600   1.485       .  S
C1525      C1526   1.405       .  A
C1525      C1530   1.430   1_655  A
C1526      C1527   1.406       .  A
C1526      H1531   1.084       .  S
C1527      C1528   1.415   1_655  A
C1527      C1534   1.443       .  S
C1528      C1529   1.394       .  A
C1529      C1530   1.401       .  A
C1530      C1533   1.446       .  S
C1533      N1535   1.158       .  T
C1534      N1536   1.157       .  T
C1537      C1848   1.494   1_554  S
C1537      C1538   1.403       .  A
C1538      C1539   1.406       .  A
C1538      H1543   1.085       .  S
C1539      C1546   1.444       .  S
C1540      C1541   1.393       .  A
C1541      C1542   1.398       .  A
C1541      H1544   1.085       .  S
C1542      C1893   1.444   1_554  S
C1545      C1890   1.444       .  S
C1545      N1547   1.157       .  T
C1546      N1548   1.157       .  T
C1549      C1550   1.406       .  A
C1549      C1554   1.405       .  A
C1550      C1551   1.409       .  A
C1550      H1555   1.084       .  S
C1551      C1552   1.418       .  A
C1551      C1558   1.443       .  S
C1552      C1553   1.413       .  A
C1553      C1554   1.399       .  A
C1553      H1556   1.084       .  S
C1554      C1557   1.444       .  S
C1557      N1559   1.157       .  T
C1558      N1560   1.157       .  T
C1561      C2165   1.475   1_545  S
C1561      C1562   1.402       .  A
C1561      C1566   1.410       .  A
C1562      C1563   1.404       .  A
C1562      H1567   1.084       .  S
C1563      C1564   1.415       .  A
C1563      C1570   1.444       .  S
C1564      C1565   1.404       .  A
C1565      C1566   1.399       .  A
C1565      H1568   1.083       .  S
C1566      C1569   1.443       .  S
C1569      N2267   1.157       .  T
C1570      N1572   1.157       .  T
N1571      C2265   1.157       .  T
C1573      C2270   1.411       .  A
C1573      C1578   1.404       .  A
C1574      C2269   1.414       .  A
C1574      C1575   1.406   1_565  A
C1574      H1579   1.084       .  S
C1575      C1576   1.407   1_545  A
C1575      C1582   1.443       .  S
C1576      C2273   1.414       .  A
C1577      C2272   1.416       .  A
C1577      C1578   1.402       .  A
C1577      H1580   1.084       .  S
C1578      C1581   1.444       .  S
C1581      N1583   1.157       .  T
C1582      N1584   1.157       .  T
C1585      C2142   1.476       .  S
C1585      C1586   1.409       .  A
C1585      C2286   1.403       .  A
C1586      C1587   1.402       .  A
C1586      H1591   1.085       .  S
C1587      C1588   1.408       .  A
C1587      C1594   1.443       .  S
C1588      C2285   1.416       .  A
C1589      C2284   1.415       .  A
C1589      C1590   1.399   1_565  A
C1589      H1592   1.085   1_565  S
C1590      C2281   1.403       .  A
C1590      C1593   1.445       .  S
C1593      N1595   1.157       .  T
C1594      N1596   1.157       .  T
C1597      C1598   1.400       .  A
C1597      C1602   1.422       .  A
C1598      C1599   1.408       .  A
C1598      H1603   1.084       .  S
C1599      C1600   1.420       .  A
C1599      C1606   1.444       .  S
C1600      C1601   1.396       .  A
C1601      C1602   1.401       .  A
C1601      H1604   1.085       .  S
C1602      C1605   1.445       .  S
C1605      N1607   1.157       .  T
C1606      N1608   1.157       .  T
C1609      C1610   1.405       .  A
C1609      C1614   1.415       .  A
C1610      C1611   1.401       .  A
C1610      H1615   1.084       .  S
C1611      C1612   1.411       .  A
C1611      C1618   1.443       .  S
C1612      C1613   1.402       .  A
C1613      C1614   1.403       .  A
C1613      H1616   1.085       .  S
C1614      C1617   1.444       .  S
C1617      N1619   1.157       .  T
C1618      N1620   1.157       .  T
C1621      C1622   1.404       .  A
C1621      C1626   1.424       .  A
C1622      C1623   1.398       .  A
C1622      H1627   1.084       .  S
C1623      C1624   1.410       .  A
C1623      C1630   1.444       .  S
C1624      C1625   1.396       .  A
C1625      C1626   1.400       .  A
C1625      H1628   1.084       .  S
C1626      C1629   1.446       .  S
C1629      N1631   1.158       .  T
C1630      N1632   1.157       .  T
C1633      C1982   1.412   1_554  A
C1633      C1638   1.420       .  A
C1634      C1981   1.412       .  A
C1634      C1635   1.401       .  A
C1634      H1639   1.084       .  S
C1635      C1636   1.408       .  A
C1635      C1642   1.445       .  S
C1636      C1637   1.409       .  A
C1637      C1986   1.415       .  A
C1637      H1640   1.084       .  S
C1638      C1985   1.415       .  A
C1638      C1641   1.443       .  S
C1641      N1643   1.157       .  T
C1642      N1644   1.157       .  T
C1645      C1646   1.406       .  A
C1645      C1650   1.406       .  A
C1646      C1647   1.409       .  A
C1646      H1651   1.084       .  S
C1647      C1648   1.418       .  A
C1647      C1654   1.443       .  S
C1648      C1649   1.412       .  A
C1649      C1650   1.397       .  A
C1649      H1652   1.084       .  S
C1650      C1653   1.446       .  S
C1653      N1655   1.157       .  T
C1654      N1656   1.157       .  T
C1657      C1658   1.397       .  A
C1657      C1662   1.410       .  A
C1658      C1659   1.402       .  A
C1658      H1663   1.085       .  S
C1659      C1660   1.422       .  A
C1659      C1666   1.445       .  S
C1660      C1661   1.407   1_554  A
C1661      C1662   1.400   1_556  A
C1661      H2012   1.084       .  S
C1662      C2013   1.445   1_554  S
H1664      C2009   1.084       .  S
C1665      C2010   1.445       .  S
C1665      N1667   1.157       .  T
C1666      N1668   1.157       .  T
C1669      C1670   1.411       .  A
C1669      C1674   1.420       .  A
C1670      C1671   1.403       .  A
C1670      H1675   1.084       .  S
C1671      C1672   1.412       .  A
C1671      C1678   1.446       .  S
C1672      C1673   1.407       .  A
C1673      C1674   1.412       .  A
C1673      H1676   1.085       .  S
C1674      C1677   1.442       .  S
C1677      N1679   1.157       .  T
C1678      N1680   1.157       .  T
C1681      C1682   1.416       .  A
C1681      C1686   1.415       .  A
C1682      C1683   1.400       .  A
C1682      H1687   1.084       .  S
C1683      C1684   1.403       .  A
C1683      C1690   1.444       .  S
C1684      C1685   1.408       .  A
C1685      C1686   1.408       .  A
C1685      H1688   1.085       .  S
C1686      C1689   1.443       .  S
C1689      N1691   1.157       .  T
C1690      N1692   1.157       .  T
C1693      C1694   1.399       .  A
C1693      C1698   1.423       .  A
C1694      C1695   1.404       .  A
C1694      H1699   1.085       .  S
C1695      C1696   1.422       .  A
C1695      C1702   1.444       .  S
C1696      C1772   1.483       .  S
C1696      C1697   1.395       .  A
C1697      C1698   1.397       .  A
C1697      H1700   1.086       .  S
C1698      C1701   1.443       .  S
C1701      N1703   1.156       .  T
C1702      N1704   1.157       .  T
C1705      C1706   1.402       .  A
C1705      C1710   1.428       .  A
C1706      C1707   1.402       .  A
C1706      H1711   1.085       .  S
C1707      C1708   1.416       .  A
C1707      C1714   1.443       .  S
C1708      C1709   1.394       .  A
C1709      C1710   1.401       .  A
C1709      H1712   1.085       .  S
C1710      C1713   1.445       .  S
C1713      N1715   1.158       .  T
C1714      N1716   1.157       .  T
C1717      C1718   1.416       .  A
C1717      C1722   1.417       .  A
C1718      C1719   1.397       .  A
C1718      H1723   1.083       .  S
C1719      C1720   1.402       .  A
C1719      C1726   1.445       .  S
C1720      C1721   1.409       .  A
C1721      C1722   1.412       .  A
C1721      H1724   1.081       .  S
C1722      C1725   1.443       .  S
C1725      N2075   1.157       .  T
C1726      N1728   1.157       .  T
N1727      C2073   1.157   1_554  T
C1729      C1730   1.406       .  A
C1729      C1734   1.423       .  A
C1730      C1731   1.403       .  A
C1730      H1735   1.085       .  S
C1731      C1732   1.411       .  A
C1731      C1738   1.444       .  S
C1732      C1733   1.400       .  A
C1733      C1734   1.406       .  A
C1733      H1736   1.085       .  S
C1734      C1737   1.445       .  S
C1737      N1739   1.157       .  T
C1738      N1740   1.157       .  T
Fe1741     O1757   2.043       .  S
Fe1741     O1747   2.132       .  S
Fe1741     O1754   2.150       .  S
Fe1741     O1746   2.057       .  S
Fe1741     O1752   1.922       .  S
Fe1742     O1745   2.032       .  S
Fe1742     O1749   2.143       .  S
Fe1742     O1753   2.022       .  S
Fe1742     O1758   2.132       .  S
Fe1742     O1752   1.930       .  S
Fe1743     O1761   2.145       .  S
Fe1743     O1748   2.025       .  S
Fe1743     O1755   2.024       .  S
Fe1743     O1744   2.105       .  S
Fe1743     O1752   1.916       .  S
O1744      C1751   1.276       .  A
O1745      C1759   1.270       .  A
O1746      C1751   1.268       .  A
O1747      C1750   1.288       .  A
O1748      C1760   1.253       .  A
O1749      C1762   1.283       .  A
C1750      O1755   1.267       .  A
C1750      C2056   1.479       .  S
C1751      C2080   1.481       .  S
O1753      C1756   1.262       .  A
O1754      C1756   1.287       .  A
C1756      C2029   1.500       .  S
O1757      C1762   1.267       .  A
O1758      C1760   1.276       .  A
C1759      O1761   1.286       .  A
C1759      C2068   1.479       .  S
C1760      C2041   1.486       .  S
C1762      C2017   1.508       .  S
Fe1763     O1779   2.039       .  S
Fe1763     O1769   2.125       .  S
Fe1763     O1776   2.133       .  S
Fe1763     O1768   2.033       .  S
Fe1763     O1774   1.913       .  S
Fe1764     O1767   2.015       .  S
Fe1764     O1771   2.148       .  S
Fe1764     O1775   2.016       .  S
Fe1764     O1780   2.136       .  S
Fe1764     O1774   1.924       .  S
Fe1765     O1783   2.152       .  S
Fe1765     O1770   2.023       .  S
Fe1765     O1777   2.025       .  S
Fe1765     O1766   2.112       .  S
Fe1765     O1774   1.910       .  S
O1766      C1773   1.279       .  A
O1767      C1781   1.266       .  A
O1768      C1773   1.264       .  A
O1769      C1772   1.286       .  A
O1770      C1782   1.251       .  A
O1771      C1784   1.283       .  A
C1772      O1777   1.266       .  A
C1773      C2005   1.471       .  S
O1775      C1778   1.260       .  A
O1776      C1778   1.286       .  A
C1778      C1969   1.485       .  S
O1779      C1784   1.266       .  A
O1780      C1782   1.277       .  A
C1781      O1783   1.289       .  A
C1781      C1993   1.476       .  S
C1782      C2053   1.493       .  S
C1784      C1981   1.509       .  S
Fe1785     O1801   2.021       .  S
Fe1785     O1791   2.118       .  S
Fe1785     O1798   2.130       .  S
Fe1785     O2486   2.030       .  S
Fe1786     O1789   2.023       .  S
Fe1786     O1797   2.026       .  S
Fe1786     O1802   2.148       .  S
Fe1786     O1796   1.920       .  S
Fe1787     O1805   2.158       .  S
Fe1787     O2488   2.020   1_545  S
Fe1787     O2136   2.133   1_545  S
Fe1787     O1796   1.910       .  S
O1788     Fe2135   2.133   1_556  S
O1788      C1795   1.284       .  A
O1789      C1803   1.264       .  A
O1790     Fe2481   2.033       .  S
O1790      C1795   1.264       .  A
O1791      C1794   1.281       .  A
O1792     Fe2483   2.020       .  S
O1792      C2500   1.257       .  A
O1793      C1806   1.286       .  A
C1794      O1799   1.264       .  A
C1794      C2629   1.475       .  S
C1795      C1960   1.475       .  S
O1797      C1800   1.261       .  A
C1800      C2008   1.490       .  S
O1801      C1806   1.263       .  A
O1802      C1804   1.282       .  A
C1803      O1805   1.289       .  A
C1803      C1945   1.488       .  S
C1804      O2488   1.257   1_545  A
C1804      C1924   1.492   1_545  S
C1806      C2065   1.503       .  S
Fe1807     O1823   2.027       .  S
Fe1807     O1813   2.137       .  S
Fe1807     O1820   2.144       .  S
Fe1807     O1812   2.042       .  S
Fe1807     O1818   1.909       .  S
Fe1808     O1811   2.032       .  S
Fe1808     O1815   2.137       .  S
Fe1808     O1819   2.029       .  S
Fe1808     O1824   2.140       .  S
Fe1808     O1818   1.923       .  S
Fe1809     O1827   2.145       .  S
Fe1809     O1814   2.020       .  S
Fe1809     O1821   2.023       .  S
Fe1809     O2506   2.118       .  S
Fe1809     O1818   1.913       .  S
O1810     Fe2505   2.118       .  S
O1810      C2513   1.280       .  A
O1811      C1825   1.265       .  A
O1812      C1817   1.265       .  A
O1813      C1816   1.287       .  A
O1814      C1826   1.257       .  A
O1815      C1828   1.282       .  A
C1816      O1821   1.265       .  A
C1816      C1921   1.485       .  S
C1817      O2506   1.280       .  A
C1817      C2605   1.475       .  S
O1819      C1822   1.265       .  A
O1820      C1822   1.288       .  A
C1822      C2077   1.496       .  S
O1823      C1828   1.263       .  A
O1824      C1826   1.282       .  A
C1825      O1827   1.285       .  A
C1825      C1897   1.479       .  S
C1826      C1936   1.488       .  S
C1828      C1996   1.499       .  S
Fe1829     O1845   2.034       .  S
Fe1829     O1835   2.117       .  S
Fe1829     O1842   2.134       .  S
Fe1829     O1840   1.919       .  S
Fe1830     O1833   2.028       .  S
Fe1830     O1837   2.139       .  S
Fe1830     O1841   2.033       .  S
Fe1830     O1846   2.138       .  S
Fe1830     O1840   1.943       .  S
Fe1831     O1849   2.169       .  S
Fe1831     O1843   2.039       .  S
Fe1831     O1840   1.911       .  S
O1832      C1839   1.282       .  A
O1833      C1847   1.270       .  A
O1834      C1839   1.265   1_455  A
O1835      C1838   1.283       .  A
O1837      C1850   1.281       .  A
C1838      O1843   1.268       .  A
C1839      C2032   1.482       .  S
O1841      C1844   1.267       .  A
O1842      C1844   1.286       .  A
C1844      C1957   1.484       .  S
O1845      C1850   1.264       .  A
O1846      C1848   1.275       .  A
C1847      O1849   1.293       .  A
C1847      C1984   1.490       .  S
C1850      C1900   1.502       .  S
Fe1851     O1867   2.035       .  S
Fe1851     O1857   2.126       .  S
Fe1851     O1864   2.122       .  S
Fe1851     O1856   2.031       .  S
Fe1851     O1862   1.923       .  S
Fe1852     O1855   2.024       .  S
Fe1852     O1859   2.135       .  S
Fe1852     O1863   2.035       .  S
Fe1852     O1868   2.148       .  S
Fe1852     O1862   1.929       .  S
Fe1853     O1871   2.162       .  S
Fe1853     O1858   2.019       .  S
Fe1853     O1865   2.031       .  S
Fe1853     O1862   1.917       .  S
O1854      C1861   1.277       .  A
O1855      C1869   1.266       .  A
O1857      C1860   1.286       .  A
O1858      C1870   1.250       .  A
O1859      C1872   1.284       .  A
C1860      O1865   1.269       .  A
C1860      C1888   1.482       .  S
C1861      C1972   1.467       .  S
O1863      C1866   1.265       .  A
O1864      C1866   1.282       .  A
C1866      C1912   1.482       .  S
O1867      C1872   1.267       .  A
O1868      C1870   1.279       .  A
C1869      O1871   1.290       .  A
C1869      C2020   1.490       .  S
C1870      C1873   1.500       .  S
C1872      C1948   1.485       .  S
C1873      C1874   1.405       .  A
C1873      C1878   1.430   1_655  A
C1874      C1875   1.406       .  A
C1874      H1879   1.084       .  S
C1875      C1876   1.415   1_655  A
C1875      C1882   1.443       .  S
C1876      C1877   1.394       .  A
C1877      C1878   1.401       .  A
C1878      C1881   1.446       .  S
C1881      N1883   1.158       .  T
C1882      N1884   1.157       .  T
C1885      C1886   1.403       .  A
C1886      C1887   1.406       .  A
C1886      H1891   1.085       .  S
C1887      C1894   1.444       .  S
C1888      C1889   1.393       .  A
C1889      C1890   1.398       .  A
C1889      H1892   1.085       .  S
C1893      N1895   1.157       .  T
C1894      N1896   1.157       .  T
C1897      C1898   1.406       .  A
C1897      C1902   1.405       .  A
C1898      C1899   1.409       .  A
C1898      H1903   1.084       .  S
C1899      C1900   1.418       .  A
C1899      C1906   1.443       .  S
C1900      C1901   1.413       .  A
C1901      C1902   1.399       .  A
C1901      H1904   1.084       .  S
C1902      C1905   1.444       .  S
C1905      N1907   1.157       .  T
C1906      N1908   1.157       .  T
C1909      C2513   1.475   1_545  S
C1909      C1910   1.402       .  A
C1909      C1914   1.410       .  A
C1910      C1911   1.404       .  A
C1910      H1915   1.084       .  S
C1911      C1912   1.415       .  A
C1911      C1918   1.444       .  S
C1912      C1913   1.404       .  A
C1913      C1914   1.399       .  A
C1913      H1916   1.083       .  S
C1914      C1917   1.443       .  S
C1917      N2615   1.157       .  T
C1918      N1920   1.157       .  T
N1919      C2613   1.157       .  T
C1921      C2618   1.411       .  A
C1921      C1926   1.404       .  A
C1922      C2617   1.414       .  A
C1922      C1923   1.406   1_565  A
C1922      H1927   1.084       .  S
C1923      C1924   1.407   1_545  A
C1923      C1930   1.443       .  S
C1924      C2621   1.414       .  A
C1925      C2620   1.416       .  A
C1925      C1926   1.402       .  A
C1925      H1928   1.084       .  S
C1926      C1929   1.444       .  S
C1929      N1931   1.157       .  T
C1930      N1932   1.157       .  T
C1933      C2490   1.476       .  S
C1933      C1934   1.409       .  A
C1933      C2634   1.403       .  A
C1934      C1935   1.402       .  A
C1934      H1939   1.085       .  S
C1935      C1936   1.408       .  A
C1935      C1942   1.443       .  S
C1936      C2633   1.416       .  A
C1937      C2632   1.415       .  A
C1937      C1938   1.399   1_565  A
C1937      H1940   1.085   1_565  S
C1938      C2629   1.403       .  A
C1938      C1941   1.445       .  S
C1941      N1943   1.157       .  T
C1942      N1944   1.157       .  T
C1945      C1946   1.400       .  A
C1945      C1950   1.422       .  A
C1946      C1947   1.408       .  A
C1946      H1951   1.084       .  S
C1947      C1948   1.420       .  A
C1947      C1954   1.444       .  S
C1948      C1949   1.396       .  A
C1949      C1950   1.401       .  A
C1949      H1952   1.085       .  S
C1950      C1953   1.445       .  S
C1953      N1955   1.157       .  T
C1954      N1956   1.157       .  T
C1957      C1958   1.405       .  A
C1957      C1962   1.415       .  A
C1958      C1959   1.401       .  A
C1958      H1963   1.084       .  S
C1959      C1960   1.411       .  A
C1959      C1966   1.443       .  S
C1960      C1961   1.402       .  A
C1961      C1962   1.403       .  A
C1961      H1964   1.085       .  S
C1962      C1965   1.444       .  S
C1965      N1967   1.157   1_556  T
C1966      N1968   1.157       .  T
C1969      C1970   1.404       .  A
C1969      C1974   1.424       .  A
C1970      C1971   1.398       .  A
C1970      H1975   1.084       .  S
C1971      C1972   1.410       .  A
C1971      C1978   1.444       .  S
C1972      C1973   1.396       .  A
C1973      C1974   1.400       .  A
C1973      H1976   1.084       .  S
C1974      C1977   1.446       .  S
C1977      N1979   1.158       .  T
C1978      N1980   1.157       .  T
C1981      C1986   1.420       .  A
C1982      C1983   1.401       .  A
C1982      H1987   1.084       .  S
C1983      C1984   1.408       .  A
C1983      C1990   1.445       .  S
C1984      C1985   1.409   1_556  A
C1985      H1988   1.084       .  S
C1986      C1989   1.443       .  S
C1989      N1991   1.157       .  T
C1990      N1992   1.157       .  T
C1993      C1994   1.406       .  A
C1993      C1998   1.406       .  A
C1994      C1995   1.409       .  A
C1994      H1999   1.084       .  S
C1995      C1996   1.418       .  A
C1995      C2002   1.443       .  S
C1996      C1997   1.412       .  A
C1997      C1998   1.397       .  A
C1997      H2000   1.084       .  S
C1998      C2001   1.446       .  S
C2001      N2003   1.157       .  T
C2002      N2004   1.157       .  T
C2005      C2006   1.397       .  A
C2005      C2010   1.410       .  A
C2006      C2007   1.402       .  A
C2006      H2011   1.085       .  S
C2007      C2008   1.422       .  A
C2007      C2014   1.445       .  S
C2008      C2009   1.407       .  A
C2009      C2010   1.400       .  A
C2013      N2015   1.157       .  T
C2014      N2016   1.157       .  T
C2017      C2018   1.411       .  A
C2017      C2022   1.420       .  A
C2018      C2019   1.403       .  A
C2018      H2023   1.084       .  S
C2019      C2020   1.412       .  A
C2019      C2026   1.446       .  S
C2020      C2021   1.407       .  A
C2021      C2022   1.412       .  A
C2021      H2024   1.085       .  S
C2022      C2025   1.442       .  S
C2025      N2027   1.157       .  T
C2026      N2028   1.157       .  T
C2029      C2030   1.416       .  A
C2029      C2034   1.415       .  A
C2030      C2031   1.400       .  A
C2030      H2035   1.084       .  S
C2031      C2032   1.403       .  A
C2031      C2038   1.444       .  S
C2032      C2033   1.408       .  A
C2033      C2034   1.408       .  A
C2033      H2036   1.085       .  S
C2034      C2037   1.443       .  S
C2037      N2039   1.157       .  T
C2038      N2040   1.157       .  T
C2041      C2042   1.399       .  A
C2041      C2046   1.423       .  A
C2042      C2043   1.404   1_556  A
C2042      H2047   1.085       .  S
C2043      C2044   1.422   1_554  A
C2043      C2050   1.444       .  S
C2044      C2045   1.395       .  A
C2045      C2046   1.397       .  A
C2045      H2048   1.086       .  S
C2046      C2049   1.443       .  S
C2049      N2051   1.156       .  T
C2050      N2052   1.157       .  T
C2053      C2054   1.402       .  A
C2053      C2058   1.428       .  A
C2054      C2055   1.402       .  A
C2054      H2059   1.085       .  S
C2055      C2056   1.416       .  A
C2055      C2062   1.443       .  S
C2056      C2057   1.394       .  A
C2057      C2058   1.401       .  A
C2057      H2060   1.085       .  S
C2058      C2061   1.445       .  S
C2061      N2063   1.158       .  T
C2062      N2064   1.157       .  T
C2065      C2066   1.416       .  A
C2065      C2070   1.417       .  A
C2066      C2067   1.397       .  A
C2066      H2071   1.083       .  S
C2067      C2068   1.402       .  A
C2067      C2074   1.445       .  S
C2068      C2069   1.409       .  A
C2069      C2070   1.412       .  A
C2069      H2072   1.081       .  S
C2070      C2073   1.443       .  S
C2074      N2076   1.157       .  T
C2077      C2078   1.406       .  A
C2077      C2082   1.423       .  A
C2078      C2079   1.403       .  A
C2078      H2083   1.085       .  S
C2079      C2080   1.411       .  A
C2079      C2086   1.444       .  S
C2080      C2081   1.400       .  A
C2081      C2082   1.406       .  A
C2081      H2084   1.085       .  S
C2082      C2085   1.445       .  S
C2085      N2087   1.157       .  T
C2086      N2088   1.157       .  T
Fe2089     O2105   2.034       .  S
Fe2089     O2095   2.131       .  S
Fe2089     O2102   2.146       .  S
Fe2089     O2094   2.050       .  S
Fe2089     O2100   1.916       .  S
Fe2090     O2093   2.028       .  S
Fe2090     O2097   2.137       .  S
Fe2090     O2101   2.027       .  S
Fe2090     O2106   2.135       .  S
Fe2090     O2100   1.929       .  S
Fe2091     O2109   2.140       .  S
Fe2091     O2096   2.024       .  S
Fe2091     O2103   2.025       .  S
Fe2091     O2092   2.108       .  S
Fe2091     O2100   1.915       .  S
O2092      C2099   1.277       .  A
O2093      C2107   1.268       .  A
O2094      C2099   1.267       .  A
O2095      C2098   1.286       .  A
O2096      C2108   1.254       .  A
O2097      C2110   1.282       .  A
C2098      O2103   1.266       .  A
C2098      C2404   1.481       .  S
C2099      C2428   1.477       .  S
O2101      C2104   1.265       .  A
O2102      C2104   1.287       .  A
C2104      C2377   1.501       .  S
O2105      C2110   1.265       .  A
O2106      C2108   1.278       .  A
C2107      O2109   1.284       .  A
C2107      C2416   1.477       .  S
C2108      C2389   1.490       .  S
C2110      C2365   1.499       .  S
Fe2111     O2127   2.034       .  S
Fe2111     O2117   2.129       .  S
Fe2111     O2124   2.134       .  S
Fe2111     O2116   2.036       .  S
Fe2111     O2122   1.914       .  S
Fe2112     O2115   2.024       .  S
Fe2112     O2119   2.150       .  S
Fe2112     O2123   2.019       .  S
Fe2112     O2128   2.143       .  S
Fe2112     O2122   1.923       .  S
Fe2113     O2131   2.156       .  S
Fe2113     O2118   2.022       .  S
Fe2113     O2125   2.023       .  S
Fe2113     O2114   2.118       .  S
Fe2113     O2122   1.910       .  S
O2114      C2121   1.280       .  A
O2115      C2129   1.267       .  A
O2116      C2121   1.263       .  A
O2117      C2120   1.286       .  A
O2118      C2130   1.252       .  A
O2119      C2132   1.285       .  A
C2120      O2125   1.266       .  A
C2120      C2740   1.480   1_554  S
C2121      C2353   1.474       .  S
O2123      C2126   1.260       .  A
O2124      C2126   1.285       .  A
C2126      C2317   1.488       .  S
O2127      C2132   1.265       .  A
O2128      C2130   1.279       .  A
C2129      O2131   1.289       .  A
C2129      C2341   1.480       .  S
C2130      C2401   1.493       .  S
C2132      C2329   1.507       .  S
Fe2133     O2149   2.018       .  S
Fe2133     O2139   2.124       .  S
Fe2133     O2146   2.129       .  S
Fe2133     O2492   1.913       .  S
Fe2134     O2137   2.026       .  S
Fe2134     O2489   2.153   1_554  S
Fe2134     O2145   2.030       .  S
Fe2134     O2150   2.148       .  S
Fe2134     O2144   1.921   1_554  S
Fe2135     O2153   2.161       .  S
Fe2135     O2495   2.026   1_554  S
Fe2135     O2144   1.910   1_554  S
O2136      C2143   1.285       .  A
O2137      C2151   1.264       .  A
O2138      C2143   1.265   1_545  A
O2139      C2142   1.283       .  A
O2141     Fe2482   2.153       .  S
O2141      C2154   1.286       .  A
C2142      O2147   1.265       .  A
C2143      C2308   1.475       .  S
O2144     Fe2481   1.913       .  S
O2145      C2148   1.262       .  A
O2146      C2496   1.282       .  A
O2147     Fe2483   2.026       .  S
C2148      O2494   1.282   1_554  A
C2148      C2356   1.490       .  S
O2149      C2154   1.264       .  A
O2150      C2152   1.282       .  A
C2151      O2153   1.289       .  A
C2151      C2293   1.491       .  S
C2152      C2272   1.493       .  S
C2154      C2413   1.500       .  S
Fe2155     O2171   2.030       .  S
Fe2155     O2161   2.134       .  S
Fe2155     O2168   2.142       .  S
Fe2155     O2160   2.041       .  S
Fe2155     O2166   1.909       .  S
Fe2156     O2159   2.027       .  S
Fe2156     O2163   2.140       .  S
Fe2156     O2167   2.028       .  S
Fe2156     O2172   2.138       .  S
Fe2156     O2166   1.926       .  S
Fe2157     O2175   2.150       .  S
Fe2157     O2162   2.021       .  S
Fe2157     O2169   2.029       .  S
Fe2157     O2166   1.914       .  S
O2159      C2173   1.266       .  A
O2160      C2165   1.265       .  A
O2161      C2164   1.287       .  A
O2162      C2174   1.256       .  A
O2163      C2176   1.282       .  A
C2164      O2169   1.266       .  A
C2164      C2269   1.491       .  S
O2167      C2170   1.264       .  A
O2168      C2170   1.287       .  A
C2170      C2425   1.493       .  S
O2171      C2176   1.264       .  A
O2172      C2174   1.280       .  A
C2173      O2175   1.286       .  A
C2173      C2245   1.481       .  S
C2174      C2284   1.486       .  S
C2176      C2344   1.502       .  S
Fe2177     O2193   2.035       .  S
Fe2177     O2183   2.128       .  S
Fe2177     O2190   2.142       .  S
Fe2177     O2188   1.920       .  S
Fe2178     O2181   2.027       .  S
Fe2178     O2185   2.143       .  S
Fe2178     O2189   2.030       .  S
Fe2178     O2194   2.146       .  S
Fe2178     O2188   1.941       .  S
Fe2179     O2197   2.163       .  S
Fe2179     O2191   2.039       .  S
Fe2179     O2188   1.912       .  S
O2180      C2187   1.280       .  A
O2181      C2195   1.270       .  A
O2182      C2187   1.266   1_455  A
O2183      C2186   1.285       .  A
O2185      C2198   1.281       .  A
C2186      O2191   1.268       .  A
C2187      C2380   1.480       .  S
O2189      C2192   1.266       .  A
O2190      C2192   1.287       .  A
C2192      C2305   1.492       .  S
O2193      C2198   1.265       .  A
O2194      C2196   1.276       .  A
C2195      O2197   1.292       .  A
C2195      C2332   1.487       .  S
C2196      C2581   1.498       .  S
C2198      C2248   1.505       .  S
Fe2199     O2215   2.034       .  S
Fe2199     O2205   2.127       .  S
Fe2199     O2212   2.126       .  S
Fe2199     O2204   2.030       .  S
Fe2199     O2210   1.921       .  S
Fe2200     O2203   2.015       .  S
Fe2200     O2207   2.143       .  S
Fe2200     O2211   2.033       .  S
Fe2200     O2216   2.157       .  S
Fe2200     O2210   1.930       .  S
Fe2201     O2219   2.156       .  S
Fe2201     O2206   2.019       .  S
Fe2201     O2213   2.035       .  S
Fe2201     O2210   1.915       .  S
O2202      C2209   1.277       .  A
O2203      C2217   1.265       .  A
O2205      C2208   1.286       .  A
O2206      C2218   1.249       .  A
O2207      C2220   1.285       .  A
C2208      O2213   1.269       .  A
C2208      C2236   1.484       .  S
C2209      C2320   1.466       .  S
O2211      C2214   1.265       .  A
O2212      C2214   1.283       .  A
C2214      C2260   1.484       .  S
O2215      C2220   1.267       .  A
O2216      C2218   1.280       .  A
C2217      O2219   1.289       .  A
C2217      C2368   1.485       .  S
C2218      C2221   1.504       .  S
C2220      C2296   1.488       .  S
C2221      C2222   1.405       .  A
C2221      C2226   1.432   1_655  A
C2222      C2223   1.408       .  A
C2222      H2227   1.084       .  S
C2223      C2224   1.417   1_655  A
C2223      C2230   1.443       .  S
C2224      C2225   1.394       .  A
C2225      C2226   1.403       .  A
C2226      C2229   1.446       .  S
C2229      N2231   1.158       .  T
C2230      N2232   1.157       .  T
C2233      C2544   1.498   1_554  S
C2233      C2234   1.404       .  A
C2234      C2235   1.407       .  A
C2234      H2239   1.084       .  S
C2235      C2242   1.444       .  S
C2236      C2237   1.394       .  A
C2237      C2238   1.400       .  A
C2237      H2240   1.085       .  S
C2238      C2589   1.445   1_554  S
C2241      C2586   1.445       .  S
C2241      N2243   1.157       .  T
C2242      N2244   1.157       .  T
C2245      C2246   1.407       .  A
C2245      C2250   1.406       .  A
C2246      C2247   1.411       .  A
C2246      H2251   1.085       .  S
C2247      C2248   1.420       .  A
C2247      C2254   1.443       .  S
C2248      C2249   1.412       .  A
C2249      C2250   1.399       .  A
C2249      H2252   1.084       .  S
C2250      C2253   1.445       .  S
C2253      N2255   1.157       .  T
C2254      N2256   1.157       .  T
C2257      C2258   1.401       .  A
C2257      C2262   1.410       .  A
C2258      C2259   1.404       .  A
C2258      H2263   1.084       .  S
C2259      C2260   1.416       .  A
C2259      C2266   1.444       .  S
C2260      C2261   1.405       .  A
C2261      C2262   1.400       .  A
C2261      H2264   1.083       .  S
C2262      C2265   1.444       .  S
C2266      N2268   1.157       .  T
C2269      C2274   1.407       .  A
C2270      C2271   1.404       .  A
C2270      H2275   1.084       .  S
C2271      C2272   1.408       .  A
C2271      C2278   1.442       .  S
C2273      C2274   1.402       .  A
C2273      H2276   1.084       .  S
C2274      C2277   1.445       .  S
C2277      N2279   1.157       .  T
C2278      N2280   1.157       .  T
C2281      C2282   1.409   1_545  A
C2282      C2283   1.402       .  A
C2282      H2287   1.085       .  S
C2283      C2284   1.408       .  A
C2283      C2290   1.443       .  S
C2285      C2286   1.400       .  A
C2285      H2288   1.085       .  S
C2286      C2289   1.445       .  S
C2289      N2291   1.157       .  T
C2290      N2292   1.157       .  T
C2293      C2294   1.401       .  A
C2293      C2298   1.422       .  A
C2294      C2295   1.410       .  A
C2294      H2299   1.084       .  S
C2295      C2296   1.421       .  A
C2295      C2302   1.444       .  S
C2296      C2297   1.396       .  A
C2297      C2298   1.403       .  A
C2297      H2300   1.085       .  S
C2298      C2301   1.444       .  S
C2301      N2303   1.157       .  T
C2302      N2304   1.157       .  T
C2305      C2306   1.408       .  A
C2305      C2310   1.419       .  A
C2306      C2307   1.405       .  A
C2306      H2311   1.084       .  S
C2307      C2308   1.412       .  A
C2307      C2314   1.445       .  S
C2308      C2309   1.398       .  A
C2309      C2310   1.401       .  A
C2309      H2312   1.085       .  S
C2310      C2313   1.444       .  S
C2313      N2315   1.157       .  T
C2314      N2316   1.157       .  T
C2317      C2318   1.406       .  A
C2317      C2322   1.425       .  A
C2318      C2319   1.399       .  A
C2318      H2323   1.084       .  S
C2319      C2320   1.409       .  A
C2319      C2326   1.445       .  S
C2320      C2321   1.395       .  A
C2321      C2322   1.399       .  A
C2321      H2324   1.084       .  S
C2322      C2325   1.446       .  S
C2325      N2327   1.158       .  T
C2326      N2328   1.157       .  T
C2329      C2678   1.414   1_554  A
C2329      C2334   1.420       .  A
C2330      C2677   1.414       .  A
C2330      C2331   1.402       .  A
C2330      H2335   1.084       .  S
C2331      C2332   1.408       .  A
C2331      C2338   1.445       .  S
C2332      C2333   1.407       .  A
C2333      C2682   1.412       .  A
C2333      H2336   1.084       .  S
C2334      C2681   1.412       .  A
C2334      C2337   1.443       .  S
C2337      N2339   1.157       .  T
C2338      N2340   1.157       .  T
C2341      C2342   1.407       .  A
C2341      C2346   1.405       .  A
C2342      C2343   1.410       .  A
C2342      H2347   1.084       .  S
C2343      C2344   1.418       .  A
C2343      C2350   1.443       .  S
C2344      C2345   1.413       .  A
C2345      C2346   1.398       .  A
C2345      H2348   1.084       .  S
C2346      C2349   1.444       .  S
C2349      N2351   1.157       .  T
C2350      N2352   1.157       .  T
C2353      C2354   1.399       .  A
C2353      C2358   1.411       .  A
C2354      C2355   1.404       .  A
C2354      H2359   1.084       .  S
C2355      C2356   1.420       .  A
C2355      C2362   1.444       .  S
C2356      C2357   1.406   1_554  A
C2357      C2358   1.401   1_556  A
C2357      H2708   1.084       .  S
C2358      C2709   1.445   1_554  S
H2360      C2705   1.084       .  S
C2361      C2706   1.445       .  S
C2361      N2363   1.157       .  T
C2362      N2364   1.157       .  T
C2365      C2366   1.408       .  A
C2365      C2370   1.418       .  A
C2366      C2367   1.398       .  A
C2366      H2371   1.085       .  S
C2367      C2368   1.413       .  A
C2367      C2374   1.446       .  S
C2368      C2369   1.406       .  A
C2369      C2370   1.410       .  A
C2369      H2372   1.085       .  S
C2370      C2373   1.442       .  S
C2373      N2375   1.157       .  T
C2374      N2376   1.157       .  T
C2377      C2378   1.416       .  A
C2377      C2382   1.417       .  A
C2378      C2379   1.401       .  A
C2378      H2383   1.084       .  S
C2379      C2380   1.404       .  A
C2379      C2386   1.445       .  S
C2380      C2381   1.406       .  A
C2381      C2382   1.407       .  A
C2381      H2384   1.085       .  S
C2382      C2385   1.443       .  S
C2385      N2387   1.157       .  T
C2386      N2388   1.157       .  T
C2389      C2390   1.401       .  A
C2389      C2394   1.426       .  A
C2390      C2391   1.403       .  A
C2390      H2395   1.085       .  S
C2391      C2392   1.419       .  A
C2391      C2398   1.444       .  S
C2392      C2468   1.480       .  S
C2392      C2393   1.394       .  A
C2393      C2394   1.399       .  A
C2393      H2396   1.086       .  S
C2394      C2397   1.444       .  S
C2397      N2399   1.157       .  T
C2398      N2400   1.157       .  T
C2401      C2402   1.401       .  A
C2401      C2406   1.428       .  A
C2402      C2403   1.403       .  A
C2402      H2407   1.085       .  S
C2403      C2404   1.418       .  A
C2403      C2410   1.443       .  S
C2404      C2405   1.394       .  A
C2405      C2406   1.401       .  A
C2405      H2408   1.085       .  S
C2406      C2409   1.445       .  S
C2409      N2411   1.157       .  T
C2410      N2412   1.157       .  T
C2413      C2414   1.415       .  A
C2413      C2418   1.417       .  A
C2414      C2415   1.395       .  A
C2414      H2419   1.082       .  S
C2415      C2416   1.404       .  A
C2415      C2422   1.446       .  S
C2416      C2417   1.408       .  A
C2417      C2418   1.411       .  A
C2417      H2420   1.080       .  S
C2418      C2421   1.443       .  S
C2421      N2771   1.157       .  T
C2422      N2424   1.157       .  T
N2423      C2769   1.157   1_554  T
C2425      C2426   1.406       .  A
C2425      C2430   1.422       .  A
C2426      C2427   1.402       .  A
C2426      H2431   1.085       .  S
C2427      C2428   1.411       .  A
C2427      C2434   1.444       .  S
C2428      C2429   1.399       .  A
C2429      C2430   1.405       .  A
C2429      H2432   1.085       .  S
C2430      C2433   1.444       .  S
C2433      N2435   1.157       .  T
C2434      N2436   1.157       .  T
Fe2437     O2453   2.034       .  S
Fe2437     O2443   2.131       .  S
Fe2437     O2450   2.146       .  S
Fe2437     O2442   2.050       .  S
Fe2437     O2448   1.916       .  S
Fe2438     O2441   2.028       .  S
Fe2438     O2445   2.137       .  S
Fe2438     O2449   2.027       .  S
Fe2438     O2454   2.135       .  S
Fe2438     O2448   1.929       .  S
Fe2439     O2457   2.140       .  S
Fe2439     O2444   2.024       .  S
Fe2439     O2451   2.025       .  S
Fe2439     O2440   2.108       .  S
Fe2439     O2448   1.915       .  S
O2440      C2447   1.277       .  A
O2441      C2455   1.268       .  A
O2442      C2447   1.267       .  A
O2443      C2446   1.286       .  A
O2444      C2456   1.254       .  A
O2445      C2458   1.282       .  A
C2446      O2451   1.266       .  A
C2446      C2752   1.481       .  S
C2447      C2776   1.477       .  S
O2449      C2452   1.265       .  A
O2450      C2452   1.287       .  A
C2452      C2725   1.501       .  S
O2453      C2458   1.265       .  A
O2454      C2456   1.278       .  A
C2455      O2457   1.284       .  A
C2455      C2764   1.477       .  S
C2456      C2737   1.490       .  S
C2458      C2713   1.499       .  S
Fe2459     O2475   2.034       .  S
Fe2459     O2465   2.129       .  S
Fe2459     O2472   2.134       .  S
Fe2459     O2464   2.036       .  S
Fe2459     O2470   1.914       .  S
Fe2460     O2463   2.024       .  S
Fe2460     O2467   2.150       .  S
Fe2460     O2471   2.019       .  S
Fe2460     O2476   2.143       .  S
Fe2460     O2470   1.923       .  S
Fe2461     O2479   2.156       .  S
Fe2461     O2466   2.022       .  S
Fe2461     O2473   2.023       .  S
Fe2461     O2462   2.118       .  S
Fe2461     O2470   1.910       .  S
O2462      C2469   1.280       .  A
O2463      C2477   1.267       .  A
O2464      C2469   1.263       .  A
O2465      C2468   1.286       .  A
O2466      C2478   1.252       .  A
O2467      C2480   1.285       .  A
C2468      O2473   1.266       .  A
C2469      C2701   1.474       .  S
O2471      C2474   1.260       .  A
O2472      C2474   1.285       .  A
C2474      C2665   1.488       .  S
O2475      C2480   1.265       .  A
O2476      C2478   1.279       .  A
C2477      O2479   1.289       .  A
C2477      C2689   1.480       .  S
C2478      C2749   1.493       .  S
C2480      C2677   1.507       .  S
Fe2481     O2497   2.018       .  S
Fe2481     O2487   2.124       .  S
Fe2481     O2494   2.129       .  S
Fe2482     O2485   2.026       .  S
Fe2482     O2493   2.030       .  S
Fe2482     O2498   2.148       .  S
Fe2482     O2492   1.921       .  S
Fe2483     O2501   2.161       .  S
Fe2483     O2492   1.910       .  S
O2484      C2491   1.285       .  A
O2485      C2499   1.264       .  A
O2486      C2491   1.265   1_545  A
O2487      C2490   1.283       .  A
O2489      C2502   1.286       .  A
C2490      O2495   1.265       .  A
C2491      C2656   1.475       .  S
O2493      C2496   1.262       .  A
C2496      C2704   1.490       .  S
O2497      C2502   1.264       .  A
O2498      C2500   1.282       .  A
C2499      O2501   1.289       .  A
C2499      C2641   1.491       .  S
C2500      C2620   1.493       .  S
C2502      C2761   1.500       .  S
Fe2503     O2519   2.030       .  S
Fe2503     O2509   2.134       .  S
Fe2503     O2516   2.141       .  S
Fe2503     O2508   2.041       .  S
Fe2503     O2514   1.909       .  S
Fe2504     O2507   2.027       .  S
Fe2504     O2511   2.140       .  S
Fe2504     O2515   2.028       .  S
Fe2504     O2520   2.138       .  S
Fe2504     O2514   1.926       .  S
Fe2505     O2523   2.150       .  S
Fe2505     O2510   2.021       .  S
Fe2505     O2517   2.029       .  S
Fe2505     O2514   1.914       .  S
O2507      C2521   1.266       .  A
O2508      C2513   1.265       .  A
O2509      C2512   1.287       .  A
O2510      C2522   1.256       .  A
O2511      C2524   1.282       .  A
C2512      O2517   1.266       .  A
C2512      C2617   1.491       .  S
O2515      C2518   1.264       .  A
O2516      C2518   1.287       .  A
C2518      C2773   1.493       .  S
O2519      C2524   1.264       .  A
O2520      C2522   1.280       .  A
C2521      O2523   1.286       .  A
C2521      C2593   1.481       .  S
C2522      C2632   1.486       .  S
C2524      C2692   1.502       .  S
Fe2525     O2541   2.035       .  S
Fe2525     O2531   2.128       .  S
Fe2525     O2538   2.142       .  S
Fe2525     O2536   1.920       .  S
Fe2526     O2529   2.027       .  S
Fe2526     O2533   2.143       .  S
Fe2526     O2537   2.030       .  S
Fe2526     O2542   2.146       .  S
Fe2526     O2536   1.941       .  S
Fe2527     O2545   2.163       .  S
Fe2527     O2539   2.039       .  S
Fe2527     O2536   1.912       .  S
O2528      C2535   1.280       .  A
O2529      C2543   1.270       .  A
O2530      C2535   1.266   1_455  A
O2531      C2534   1.285       .  A
O2533      C2546   1.281       .  A
C2534      O2539   1.268       .  A
C2535      C2728   1.480       .  S
O2537      C2540   1.266       .  A
O2538      C2540   1.287       .  A
C2540      C2653   1.492       .  S
O2541      C2546   1.265       .  A
O2542      C2544   1.276       .  A
C2543      O2545   1.292       .  A
C2543      C2680   1.487       .  S
C2546      C2596   1.505       .  S
Fe2547     O2563   2.034       .  S
Fe2547     O2553   2.127       .  S
Fe2547     O2560   2.126       .  S
Fe2547     O2552   2.030       .  S
Fe2547     O2558   1.921       .  S
Fe2548     O2551   2.015       .  S
Fe2548     O2555   2.143       .  S
Fe2548     O2559   2.033       .  S
Fe2548     O2564   2.157       .  S
Fe2548     O2558   1.930       .  S
Fe2549     O2567   2.156       .  S
Fe2549     O2554   2.019       .  S
Fe2549     O2561   2.035       .  S
Fe2549     O2558   1.915       .  S
O2550      C2557   1.277       .  A
O2551      C2565   1.265       .  A
O2553      C2556   1.286       .  A
O2554      C2566   1.249       .  A
O2555      C2568   1.285       .  A
C2556      O2561   1.269       .  A
C2556      C2584   1.484       .  S
C2557      C2668   1.466       .  S
O2559      C2562   1.264       .  A
O2560      C2562   1.283       .  A
C2562      C2608   1.484       .  S
O2563      C2568   1.267       .  A
O2564      C2566   1.280       .  A
C2565      O2567   1.289       .  A
C2565      C2716   1.485       .  S
C2566      C2569   1.504       .  S
C2568      C2644   1.488       .  S
C2569      C2570   1.405       .  A
C2569      C2574   1.432   1_655  A
C2570      C2571   1.408       .  A
C2570      H2575   1.084       .  S
C2571      C2572   1.417   1_655  A
C2571      C2578   1.443       .  S
C2572      C2573   1.394       .  A
C2573      C2574   1.403       .  A
C2574      C2577   1.446       .  S
C2577      N2579   1.158       .  T
C2578      N2580   1.157       .  T
C2581      C2582   1.404       .  A
C2582      C2583   1.407       .  A
C2582      H2587   1.084       .  S
C2583      C2590   1.444       .  S
C2584      C2585   1.394       .  A
C2585      C2586   1.400       .  A
C2585      H2588   1.085       .  S
C2589      N2591   1.157       .  T
C2590      N2592   1.157       .  T
C2593      C2594   1.407       .  A
C2593      C2598   1.406       .  A
C2594      C2595   1.411       .  A
C2594      H2599   1.085       .  S
C2595      C2596   1.420       .  A
C2595      C2602   1.443       .  S
C2596      C2597   1.412       .  A
C2597      C2598   1.399       .  A
C2597      H2600   1.084       .  S
C2598      C2601   1.445       .  S
C2601      N2603   1.157       .  T
C2602      N2604   1.157       .  T
C2605      C2606   1.401       .  A
C2605      C2610   1.410       .  A
C2606      C2607   1.404       .  A
C2606      H2611   1.084       .  S
C2607      C2608   1.416       .  A
C2607      C2614   1.444       .  S
C2608      C2609   1.405       .  A
C2609      C2610   1.400       .  A
C2609      H2612   1.083       .  S
C2610      C2613   1.444       .  S
C2614      N2616   1.157       .  T
C2617      C2622   1.407       .  A
C2618      C2619   1.404       .  A
C2618      H2623   1.084       .  S
C2619      C2620   1.408       .  A
C2619      C2626   1.442       .  S
C2621      C2622   1.402       .  A
C2621      H2624   1.084       .  S
C2622      C2625   1.445       .  S
C2625      N2627   1.157       .  T
C2626      N2628   1.157       .  T
C2629      C2630   1.409   1_545  A
C2630      C2631   1.402       .  A
C2630      H2635   1.085       .  S
C2631      C2632   1.408       .  A
C2631      C2638   1.443       .  S
C2633      C2634   1.400       .  A
C2633      H2636   1.085       .  S
C2634      C2637   1.445       .  S
C2637      N2639   1.157       .  T
C2638      N2640   1.157       .  T
C2641      C2642   1.401       .  A
C2641      C2646   1.422       .  A
C2642      C2643   1.410       .  A
C2642      H2647   1.084       .  S
C2643      C2644   1.421       .  A
C2643      C2650   1.444       .  S
C2644      C2645   1.396       .  A
C2645      C2646   1.403       .  A
C2645      H2648   1.085       .  S
C2646      C2649   1.444       .  S
C2649      N2651   1.157       .  T
C2650      N2652   1.157       .  T
C2653      C2654   1.408       .  A
C2653      C2658   1.419       .  A
C2654      C2655   1.405       .  A
C2654      H2659   1.084       .  S
C2655      C2656   1.412       .  A
C2655      C2662   1.445       .  S
C2656      C2657   1.398       .  A
C2657      C2658   1.401       .  A
C2657      H2660   1.085   1_556  S
C2658      C2661   1.444       .  S
C2661      N2663   1.157   1_556  T
C2662      N2664   1.157       .  T
C2665      C2666   1.406       .  A
C2665      C2670   1.425       .  A
C2666      C2667   1.399       .  A
C2666      H2671   1.084       .  S
C2667      C2668   1.409       .  A
C2667      C2674   1.445       .  S
C2668      C2669   1.395       .  A
C2669      C2670   1.399       .  A
C2669      H2672   1.084       .  S
C2670      C2673   1.446       .  S
C2673      N2675   1.158       .  T
C2674      N2676   1.157       .  T
C2677      C2682   1.420       .  A
C2678      C2679   1.402       .  A
C2678      H2683   1.084       .  S
C2679      C2680   1.408       .  A
C2679      C2686   1.445       .  S
C2680      C2681   1.407   1_556  A
C2681      H2684   1.084       .  S
C2682      C2685   1.443       .  S
C2685      N2687   1.157       .  T
C2686      N2688   1.157       .  T
C2689      C2690   1.407       .  A
C2689      C2694   1.405       .  A
C2690      C2691   1.410       .  A
C2690      H2695   1.084       .  S
C2691      C2692   1.418       .  A
C2691      C2698   1.443       .  S
C2692      C2693   1.413       .  A
C2693      C2694   1.398       .  A
C2693      H2696   1.084       .  S
C2694      C2697   1.444       .  S
C2697      N2699   1.157       .  T
C2698      N2700   1.157       .  T
C2701      C2702   1.399       .  A
C2701      C2706   1.411       .  A
C2702      C2703   1.404       .  A
C2702      H2707   1.084       .  S
C2703      C2704   1.420       .  A
C2703      C2710   1.444       .  S
C2704      C2705   1.406       .  A
C2705      C2706   1.401       .  A
C2709      N2711   1.157       .  T
C2710      N2712   1.157       .  T
C2713      C2714   1.408       .  A
C2713      C2718   1.418       .  A
C2714      C2715   1.398       .  A
C2714      H2719   1.085       .  S
C2715      C2716   1.413       .  A
C2715      C2722   1.446       .  S
C2716      C2717   1.406       .  A
C2717      C2718   1.410       .  A
C2717      H2720   1.085       .  S
C2718      C2721   1.442       .  S
C2721      N2723   1.157       .  T
C2722      N2724   1.157       .  T
C2725      C2726   1.416       .  A
C2725      C2730   1.417       .  A
C2726      C2727   1.401       .  A
C2726      H2731   1.084       .  S
C2727      C2728   1.404       .  A
C2727      C2734   1.445       .  S
C2728      C2729   1.406       .  A
C2729      C2730   1.407       .  A
C2729      H2732   1.085       .  S
C2730      C2733   1.443       .  S
C2733      N2735   1.157       .  T
C2734      N2736   1.157       .  T
C2737      C2738   1.401       .  A
C2737      C2742   1.426       .  A
C2738      C2739   1.403   1_556  A
C2738      H2743   1.085       .  S
C2739      C2740   1.419   1_554  A
C2739      C2746   1.444       .  S
C2740      C2741   1.394       .  A
C2741      C2742   1.399       .  A
C2741      H2744   1.086       .  S
C2742      C2745   1.444       .  S
C2745      N2747   1.157       .  T
C2746      N2748   1.157       .  T
C2749      C2750   1.401       .  A
C2749      C2754   1.428       .  A
C2750      C2751   1.403       .  A
C2750      H2755   1.085       .  S
C2751      C2752   1.418       .  A
C2751      C2758   1.443       .  S
C2752      C2753   1.394       .  A
C2753      C2754   1.401       .  A
C2753      H2756   1.085       .  S
C2754      C2757   1.445       .  S
C2757      N2759   1.157       .  T
C2758      N2760   1.157       .  T
C2761      C2762   1.415       .  A
C2761      C2766   1.417       .  A
C2762      C2763   1.395       .  A
C2762      H2767   1.082       .  S
C2763      C2764   1.404       .  A
C2763      C2770   1.446       .  S
C2764      C2765   1.408       .  A
C2765      C2766   1.411       .  A
C2765      H2768   1.080       .  S
C2766      C2769   1.443       .  S
C2770      N2772   1.157       .  T
C2773      C2774   1.406       .  A
C2773      C2778   1.422       .  A
C2774      C2775   1.402       .  A
C2774      H2779   1.085       .  S
C2775      C2776   1.411       .  A
C2775      C2782   1.444       .  S
C2776      C2777   1.399       .  A
C2777      C2778   1.405       .  A
C2777      H2780   1.085       .  S
C2778      C2781   1.444       .  S
C2781      N2783   1.157       .  T
C2782      N2784   1.157       .  T
