geometry optimzed in LAMMPS
_audit_creation_date              2020-11-30 
_audit_creation_method            'lammps2cif' 
_symmetry_space_group_name_H-M    'P1' 
_symmetry_Int_Tables_number       1 
_symmetry_cell_setting            triclinic 
loop_ 
_symmetry_equiv_pos_as_xyz 
  x,y,z 
_cell_length_a                    53.268166152414764 
_cell_length_b                    53.10683985450012 
_cell_length_c                    22.442366924806446 
_cell_angle_alpha                 85.77616628462708 
_cell_angle_beta                  94.39618543151889 
_cell_angle_gamma                 87.70402632718987 
loop_ 
_atom_site_label 
_atom_site_type_symbol 
_atom_site_fract_x 
_atom_site_fract_y 
_atom_site_fract_z 
_atom_site_charge 
Zr1        Zr  0.01887819  0.15168863  0.58034531     2.17510
O2          O  0.04222390  0.17494740  0.65458665    -0.52460
O3          O  0.48880233  0.15221803  0.65889776    -0.75660
O4          O  0.02019032  0.19716570  0.54978924    -0.82440
O5          O  0.04608805  0.08541084  0.63832086    -0.84190
O6          O  0.49873127  0.20669210  0.45856163    -0.79810
O7          O  0.05448911  0.12683991  0.64243013    -0.91450
O8          O  0.45296982  0.15672253  0.60135467    -0.77410
O9          O  0.47893470  0.16035210  0.52259231    -0.86900
O10         O  0.49512336  0.11464993  0.59342099    -0.86590
O11         O  0.02649403  0.16047053  0.47528942    -0.73350
O12         O  0.04254706  0.11903486  0.53841476    -0.85480
Zr13       Zr  0.49004398  0.09908277  0.38777210     2.26420
Zr14       Zr  0.48598105  0.16776542  0.41829731     2.06270
Zr15       Zr  0.01802101  0.08259463  0.55014129     2.10050
Zr16       Zr  0.45569927  0.12336274  0.53489204     1.78760
O17         O  0.05233788  0.05165005  0.54573309    -0.94290
O18         O  0.41577912  0.14644669  0.50460446    -0.42100
O19         O  0.47943152  0.09196791  0.49106606    -0.78730
O20         O  0.46344000  0.12959363  0.43179789    -0.97420
O21         O  0.01212441  0.13679693  0.37570367    -0.90720
O22         O  0.02901559  0.09022396  0.44911588    -0.93560
C23         C  0.46456425  0.15300209  0.65284854     1.00190
C24         C  0.05932889  0.10294630  0.65830441     1.13120
C25         C  0.51193776  0.21280252  0.50511830     1.03900
O26         O  0.45108630  0.19907894  0.41391474    -0.95720
O27         O  0.45303610  0.15991146  0.33945910    -0.91460
O28         O  0.47171212  0.12625078  0.30337549    -0.84610
C29         C  0.45293096  0.14181740  0.30443261     1.10540
O30         O  0.08528845  0.15360809  0.47097650    -0.97690
Zr31       Zr  0.05102928  0.12798356  0.43539816     1.88940
O32         O  0.02287022  0.08428593  0.32517156    -0.74340
O33         O  0.00309856  0.18990269  0.33279696    -0.53600
O34         O  0.05965227  0.15861962  0.35411860    -0.98280
O35         O  0.09055551  0.10391785  0.46457318    -0.55500
O36         O  0.05955908  0.10164123  0.35415381    -0.74860
C37         C  0.04662866  0.08715060  0.32158303     0.97490
O38         O  0.45913507  0.07401356  0.33582789    -0.63680
O39         O  0.50440338  0.05148003  0.62461825    -0.58480
O40         O  0.48678122  0.05430797  0.39588351    -0.95160
O41         O  0.98497493  0.06614126  0.48538820    -0.93590
O42         O  0.44688523  0.09316089  0.61674355    -0.93940
O43         O  0.41851907  0.09940681  0.51267880    -0.92730
C44         C  0.98943764  0.04865522  0.45149926     1.16330
H45         H  0.49341828  0.10896638  0.63461324     0.32270
H46         H  0.44652906  0.12973866  0.41307958     0.43130
H47         H  0.03846295  0.07571050  0.43773317     0.36650
H48         H  0.03659634  0.17500500  0.46986002     0.33130
H49         H  0.40789114  0.14877159  0.54249994     0.24920
H50         H  0.49141556  0.20487895  0.32259293     0.30860
H51         H  0.07339863  0.15050235  0.33398231     0.36770
H52         H  0.43007956  0.09872624  0.62822987     0.31230
H53         H  0.02001078  0.04318510  0.64471119     0.30100
H54         H  0.06757051  0.06166199  0.54414539     0.31780
H55         H  0.10108902  0.10707183  0.43053508     0.30750
H56         H  0.42275672  0.08974913  0.47841560     0.34750
H57         H  0.44332338  0.07641915  0.35553272     0.27480
H58         H  0.03047851  0.18874012  0.66412797     0.31720
H59         H  0.09708579  0.15444485  0.43894924     0.34570
H60         H  0.49753229  0.06152838  0.65559342     0.27180
H61         H  0.45588292  0.08195651  0.29455523     0.40050
H62         H  0.44703626  0.19995760  0.45606547     0.30100
H63         H  0.42055486  0.16358476  0.49068889     0.37720
H64         H  0.08626368  0.08600602  0.46299977     0.29570
H65         H  0.01881370  0.19693282  0.34964281     0.29630
H66         H  0.05544942  0.18347958  0.63304962     0.29900
Zr67       Zr  0.07116617  0.42617339  0.60567713     2.17510
O68         O  0.10977327  0.44950663  0.61711799    -0.52460
O69         O  0.03835753  0.43912361  0.66927058    -0.75660
O70         O  0.06386073  0.47042598  0.62133167    -0.82440
O71         O  0.11151238  0.37133999  0.65244016    -0.84190
O72         O  0.05478658  0.45602418  0.53689977    -0.79810
O73         O  0.08541637  0.39795772  0.69028405    -0.91450
O74         O  0.00262252  0.42055906  0.63676459    -0.77410
O75         O  0.03189841  0.43183367  0.54352475    -0.86900
O76         O  0.05043197  0.38710750  0.61629218    -0.86590
O77         O  0.08129089  0.43637987  0.50114902    -0.73350
O78         O  0.09921845  0.39587700  0.56695304    -0.85480
Zr79       Zr  0.04573273  0.37451144  0.41049357     2.26420
Zr80       Zr  0.04141943  0.44205859  0.44261647     2.06270
Zr81       Zr  0.07849615  0.35733868  0.57694477     2.10050
Zr82       Zr  0.01158377  0.39354275  0.55666238     1.78760
O83         O  0.11335168  0.32620769  0.57766218    -0.94290
O84         O  0.47175136  0.41658978  0.52516276    -0.42100
O85         O  0.03919210  0.36428509  0.51536689    -0.78730
O86         O  0.01856460  0.40410751  0.45366656    -0.97420
O87         O  0.06848131  0.41203461  0.40242597    -0.90720
O88         O  0.08510839  0.36618760  0.47241548    -0.93560
C89         C  0.01464454  0.43538078  0.67044416     1.00190
C90         C  0.10738437  0.38817976  0.68968629     1.13120
C91         C  0.05426081  0.47458035  0.56825141     1.03900
O92         O  0.00758049  0.47458879  0.43343060    -0.95720
O93         O  0.01171263  0.43869213  0.35844290    -0.91460
O94         O  0.01089107  0.39735591  0.33921116    -0.84610
C95         C  0.00261192  0.42093763  0.32952064     1.10540
O96         O  0.14316534  0.42826810  0.49856138    -0.97690
Zr97       Zr  0.10736235  0.40417283  0.46466868     1.88940
O98         O  0.07632149  0.38257283  0.33360051    -0.74340
O99         O  0.06223474  0.47190212  0.37698395    -0.53600
O100        O  0.12086102  0.43611194  0.39192905    -0.98280
O101        O  0.14448470  0.37714663  0.49949043    -0.55500
O102        O  0.11359288  0.37707714  0.38585941    -0.74860
C103        C  0.10060010  0.38238023  0.33673854     0.97490
O104        O  0.03201456  0.34499595  0.33778021    -0.63680
O105        O  0.06454717  0.33406453  0.66514763    -0.58480
O106        O  0.04109451  0.32975976  0.44416413    -0.95160
O107        O  0.06184377  0.31999096  0.53644471    -0.93590
O108        O  0.00157032  0.36217047  0.63492556    -0.93940
O109        O  0.47924798  0.36541192  0.52343084    -0.92730
C110        C  0.04822991  0.31424928  0.49008976     1.16330
H111        H  0.04679350  0.38211947  0.65688592     0.32270
H112        H  0.00151015  0.40569234  0.43579085     0.43130
H113        H  0.09426981  0.35175192  0.45956281     0.36650
H114        H  0.09141590  0.45109523  0.49605182     0.33130
H115        H  0.46162899  0.41476021  0.56031106     0.24920
H116        H  0.05152041  0.48767640  0.37293585     0.30860
H117        H  0.13645344  0.42869661  0.37764962     0.36770
H118        H  0.48759487  0.37020622  0.65431974     0.31230
H119        H  0.06898507  0.31611660  0.65998284     0.30100
H120        H  0.11420507  0.31723106  0.61807403     0.31780
H121        H  0.15432846  0.37607434  0.46400387     0.30750
H122        H  0.48491376  0.35944587  0.48567033     0.34750
H123        H  0.01340769  0.34543019  0.33776393     0.27480
H124        H  0.10820263  0.46400300  0.58653648     0.31720
H125        H  0.15766923  0.42262692  0.47701041     0.34570
H126        H  0.07632027  0.33843563  0.69872459     0.27180
H127        H  0.53527378  0.35335350  0.29836387     0.40050
H128        H  0.00749160  0.48284344  0.39237952     0.30100
H129        H  0.47601242  0.43459855  0.52229121     0.37720
H130        H  0.13806098  0.36003994  0.50643556     0.29570
H131        H  0.07784836  0.47605106  0.40029558     0.29630
H132        H  0.12309140  0.43820235  0.60369603     0.29900
Zr133      Zr  0.17192652  0.49993801  0.90933339     2.17510
O134        O  0.19594101  0.02199260  0.83491727    -0.52460
O135        O  0.17302625  0.46902341  0.83214337    -0.75660
O136        O  0.21696311  0.50223715  0.94237327    -0.82440
O137        O  0.10656789  0.02601437  0.84275531    -0.84190
O138        O  0.22618715  0.48214393  0.03527453    -0.79810
O139        O  0.14783498  0.03529884  0.84486849    -0.91450
O140        O  0.17661903  0.43290550  0.88929788    -0.77410
O141        O  0.18054725  0.46066386  0.97015669    -0.86900
O142        O  0.13530299  0.47566860  0.89526016    -0.86590
O143        O  0.17940944  0.00918961  0.01393849    -0.73350
O144        O  0.13839979  0.02428179  0.94596215    -0.85480
Zr145      Zr  0.11716918  0.47282372  0.09584220     2.26420
Zr146      Zr  0.18718943  0.46930141  0.07401165     2.06270
Zr147      Zr  0.10218557  0.99944995  0.93260887     2.10050
Zr148      Zr  0.14392233  0.43689490  0.95679590     1.78760
O149        O  0.07100823  0.03403284  0.93331192    -0.94290
O150        O  0.16720854  0.39740784  0.99087550    -0.42100
O151        O  0.11084308  0.46127386  0.99317234    -0.78730
O152        O  0.14975818  0.44604291  0.05962907    -0.97420
O153        O  0.15447232  0.49551994  0.10909660    -0.90720
O154        O  0.10866657  0.01134099  0.03259667    -0.93560
C155        C  0.17334312  0.44470370  0.83791484     1.00190
C156        C  0.12429246  0.03950925  0.82519788     1.13120
C157        C  0.23236242  0.49486937  0.98820018     1.03900
O158        O  0.21533601  0.43178222  0.07926002    -0.95720
O159        O  0.17766618  0.44196538  0.16348623    -0.91460
O160        O  0.14811817  0.46976868  0.17896306    -0.84610
C161        C  0.15868659  0.44817474  0.19197659     1.10540
O162        O  0.17074298  0.06900067  0.01519219    -0.97690
Zr163      Zr  0.14571136  0.03396078  0.04868937     1.88940
O164        O  0.09967413  0.50487464  0.15694023    -0.74340
O165        O  0.21089326  0.48737596  0.15626934    -0.53600
O166        O  0.17468342  0.04502410  0.13104053    -0.98280
O167        O  0.12044883  0.07228325  0.01410628    -0.55500
O168        O  0.11842605  0.04115742  0.12944163    -0.74860
C169        C  0.10322779  0.02861094  0.16089054     0.97490
O170        O  0.10124485  0.43203694  0.12990499    -0.63680
O171        O  0.07184308  0.48329730  0.85954324    -0.58480
O172        O  0.07258787  0.47200016  0.09420295    -0.95160
O173        O  0.08638098  0.46956042  0.00646820    -0.93590
O174        O  0.11542584  0.42579473  0.87368639    -0.93940
O175        O  0.11956168  0.40027903  0.98178454    -0.92730
C176        C  0.06831000  0.47472332  0.03804642     1.16330
H177        H  0.13012472  0.47319396  0.85411272     0.32270
H178        H  0.15123965  0.42976805  0.08202973     0.43130
H179        H  0.09403856  0.02090716  0.04274951     0.36650
H180        H  0.19364662  0.01968010  0.01938561     0.33130
H181        H  0.16859703  0.38832245  0.95418812     0.24920
H182        H  0.22707241  0.47731389  0.16169030     0.30860
H183        H  0.16560628  0.05863849  0.14973828     0.36770
H184        H  0.12204760  0.40910145  0.86344748     0.31230
H185        H  0.06424128  0.49841230  0.83530437     0.30100
H186        H  0.06471639  0.03806360  0.89089217     0.31780
H187        H  0.11940937  0.08189738  0.05007301     0.30750
H188        H  0.10512585  0.40717511  0.00173184     0.34750
H189        H  0.08922995  0.42737239  0.09711269     0.27480
H190        H  0.20995824  0.01006284  0.82771190     0.31720
H191        H  0.16865717  0.08203298  0.04401598     0.34810
H192        H  0.08223314  0.47461019  0.83184548     0.27180
H193        H  0.11547763  0.41954991  0.12923399     0.40050
H194        H  0.22003941  0.43048999  0.03771753     0.30100
H195        H  0.18456196  0.40241533  0.00172747     0.37720
H196        H  0.10318467  0.06651599  0.00563565     0.29570
H197        H  0.21535857  0.50421357  0.13940293     0.29630
H198        H  0.20404245  0.03579754  0.85545608     0.29900
Zr199      Zr  0.44417673  0.05176975  0.88021880     2.17510
O200        O  0.46735494  0.09053123  0.86802381    -0.52460
O201        O  0.45664443  0.01833804  0.81833676    -0.75660
O202        O  0.48781882  0.04430668  0.86212914    -0.82440
O203        O  0.38961872  0.09265496  0.83442525    -0.84190
O204        O  0.47409600  0.03426267  0.94708470    -0.79810
O205        O  0.41516546  0.06558923  0.79669823    -0.91450
O206        O  0.43986336  0.48259100  0.85634683    -0.77410
O207        O  0.45006263  0.01283846  0.94392214    -0.86900
O208        O  0.40504633  0.03118718  0.87192604    -0.86590
O209        O  0.45592256  0.06245931  0.98356023    -0.73350
O210        O  0.41488580  0.08044797  0.91915819    -0.85480
Zr211      Zr  0.39392520  0.02969346  0.07958667     2.26420
Zr212      Zr  0.46112352  0.02307244  0.04395047     2.06270
Zr213      Zr  0.37610051  0.06009178  0.91100578     2.10050
Zr214      Zr  0.41158242  0.49294493  0.93363769     1.78760
O215        O  0.34551984  0.09549309  0.90959297    -0.94290
O216        O  0.43299848  0.45255260  0.96866253    -0.42100
O217        O  0.38316200  0.02153327  0.97536021    -0.78730
O218        O  0.42246912  0.00125929  0.03603209    -0.97420
O219        O  0.43222839  0.05113567  0.08539812    -0.90720
O220        O  0.38582049  0.06795604  0.01402439    -0.93560
C221        C  0.45399069  0.99432557  0.82076694     1.00190
C222        C  0.40606116  0.08788394  0.79696993     1.13120
C223        C  0.99258343  0.03521202  0.91552623     1.03900
O224        O  0.49480269  0.49058707  0.05582531    -0.95720
O225        O  0.45788023  0.99253392  0.12634534    -0.91460
O226        O  0.41747602  0.99541442  0.15203412    -0.84610
C227        C  0.44044755  0.98529390  0.15867422     1.10540
O228        O  0.45218852  0.12377163  0.99834145    -0.97690
Zr229      Zr  0.42463342  0.08924062  0.02058890     1.88940
O230        O  0.39774250  0.06443695  0.15058532    -0.74340
O231        O  0.49153500  0.04376631  0.10852424    -0.53600
O232        O  0.45262868  0.09768633  0.10732355    -0.98280
O233        O  0.40405534  0.12885397  0.97656525    -0.55500
O234        O  0.39374173  0.09876129  0.08715078    -0.74860
C235        C  0.39674863  0.08879693  0.14004201     0.97490
O236        O  0.36582336  0.51539157  0.15458487    -0.63680
O237        O  0.35220774  0.04529510  0.82444264    -0.58480
O238        O  0.34929993  0.02424273  0.04677411    -0.95160
O239        O  0.33906211  0.04436682  0.95403028    -0.93590
O240        O  0.38077688  0.48264474  0.85428569    -0.93940
O241        O  0.38254352  0.46144619  0.96627109    -0.92730
C242        C  0.33357790  0.03111825  0.00107918     1.16330
H243        H  0.39975997  0.02711353  0.83176090     0.32270
H244        H  0.42333669  0.48435472  0.05445502     0.43130
H245        H  0.37074220  0.07683530  0.02422372     0.36650
H246        H  0.47100295  0.07207438  0.98734272     0.33130
H247        H  0.43121468  0.44207396  0.93399836     0.24920
H248        H  0.50657281  0.03203819  0.11476520     0.30860
H249        H  0.46989957  0.09488206  0.09503115     0.36770
H250        H  0.38915501  0.46883437  0.83474701     0.31230
H251        H  0.33432243  0.04893449  0.83124717     0.30100
H252        H  0.33484425  0.09469401  0.87173740     0.31780
H253        H  0.40020174  0.13862839  0.01089727     0.30750
H254        H  0.37693615  0.46721690  0.00427326     0.34750
H255        H  0.36634170  0.49674414  0.15413857     0.27480
H256        H  0.48265430  0.08861707  0.89618287     0.31720
H257        H  0.44922598  0.13627250  0.02799903     0.34570
H258        H  0.35553465  0.05739874  0.79057774     0.27180
H259        H  0.37473596  0.51859327  0.19346694     0.40050
H260        H  0.48912949  0.47775586  0.02854323     0.30100
H261        H  0.45110683  0.45621097  0.97258505     0.37720
H262        H  0.38739628  0.12401406  0.95954689     0.29570
H263        H  0.49688721  0.05847021  0.08380680     0.29630
H264        H  0.45672710  0.10370962  0.88424335     0.29900
C265        C  0.27676288  0.49361257  0.03541746    -0.14470
C266        C  0.25861019  0.50326129  0.98955720     0.07680
C267        C  0.26525981  0.02250057  0.94924513    -0.14470
C268        C  0.28928142  0.03208037  0.95438267    -0.14470
C269        C  0.30751289  0.02219000  0.99979853     0.07680
C270        C  0.30106334  0.00243031  0.04001846    -0.14470
H271        H  0.27238131  0.47855265  0.06764160     0.11660
H272        H  0.25163969  0.03091055  0.91440748     0.11660
H273        H  0.29355581  0.04729163  0.92243595     0.11660
H274        H  0.31438839  0.49530172  0.07586940     0.11660
C275        C  0.02603922  0.03014234  0.99360918    -0.14470
C276        C  0.01561933  0.02299559  0.93871732     0.07680
C277        C  0.02095057  0.99918743  0.91938997    -0.14470
C278        C  0.03678683  0.48216006  0.95535527    -0.14470
C279        C  0.04722464  0.48932798  0.01012197     0.07680
C280        C  0.04189618  0.01320637  0.02981256    -0.14470
H281        H  0.02133041  0.04850478  0.00864331     0.11660
H282        H  0.51178756  0.49291027  0.87851786     0.11660
H283        H  0.04125052  0.46368135  0.94035471     0.11660
H284        H  0.05058731  0.01892942  0.07163733     0.11660
C285        C  0.13798012  0.38780521  0.27511773    -0.14470
C286        C  0.11365184  0.39579020  0.28901708     0.07680
C287        C  0.10508873  0.42065924  0.27189755    -0.14470
C288        C  0.12094167  0.43770711  0.24583923    -0.14470
C289        C  0.14494718  0.42986643  0.22958430     0.07680
C290        C  0.15319909  0.40449513  0.24371354    -0.14470
H291        H  0.14538002  0.36889665  0.28985796     0.11660
H292        H  0.08693316  0.42768963  0.28401503     0.11660
H293        H  0.11368862  0.45703126  0.23601531     0.11660
H294        H  0.17145487  0.39777346  0.23172186     0.11660
C295        C  0.12226083  0.42711581  0.73148091    -0.14470
C296        C  0.12760487  0.40152076  0.72290147     0.07680
C297        C  0.15103982  0.39059134  0.74697562    -0.14470
C298        C  0.16762833  0.40491758  0.78204296    -0.14470
C299        C  0.16198792  0.43085602  0.78819518     0.07680
C300        C  0.13993488  0.44194633  0.75831032    -0.14470
H301        H  0.10391836  0.43607022  0.71782777     0.11660
H302        H  0.15568330  0.37084199  0.74230611     0.11660
H303        H  0.18431161  0.39563516  0.80586990     0.11660
H304        H  0.13469811  0.46164022  0.76178918     0.11660
C305        C  0.46239542  0.44738702  0.30532609    -0.14470
C306        C  0.48044893  0.42992274  0.28626098     0.07680
C307        C  0.48070366  0.42768315  0.22448423    -0.14470
C308        C  0.46512751  0.44398818  0.18333742    -0.14470
C309        C  0.44881483  0.46310901  0.20238040     0.07680
C310        C  0.44682703  0.46371180  0.26417415    -0.14470
H311        H  0.46190138  0.44997234  0.35266893     0.11660
H312        H  0.99462184  0.41509529  0.20782046     0.11660
H313        H  0.46742762  0.44308149  0.13597993     0.11660
H314        H  0.43509002  0.47831547  0.28086375     0.11660
C315        C  0.47701322  0.44082491  0.73098785    -0.14470
C316        C  0.99976575  0.44982289  0.71143302     0.07680
C317        C  0.50718082  0.47359681  0.72801354    -0.14470
C318        C  0.49189242  0.48835521  0.76140571    -0.14470
C319        C  0.46929621  0.47927454  0.78163114     0.07680
C320        C  0.46220416  0.45517672  0.76646672    -0.14470
H321        H  0.97070044  0.42262804  0.71898549     0.11660
H322        H  0.52451601  0.48116157  0.71373824     0.11660
H323        H  0.49796319  0.00663221  0.77246075     0.11660
H324        H  0.44500145  0.44754343  0.78137095     0.11660
C325        C  0.05129751  0.04964850  0.25842069    -0.14470
C326        C  0.06042874  0.07231071  0.27888514     0.07680
C327        C  0.08383873  0.08002378  0.26079126    -0.14470
C328        C  0.09757472  0.06576682  0.22309808    -0.14470
C329        C  0.08865862  0.04300143  0.20301492     0.07680
C330        C  0.06532310  0.03508105  0.22138688    -0.14470
H331        H  0.03349870  0.04293254  0.27189659     0.11660
H332        H  0.09158084  0.09725833  0.27564126     0.11660
H333        H  0.11540148  0.07255062  0.20996948     0.11660
H334        H  0.05771402  0.01781584  0.20637633     0.11660
C335        C  0.08375614  0.09698696  0.76080986    -0.14470
C336        C  0.08195691  0.09338097  0.69924151     0.07680
C337        C  0.09842845  0.07477902  0.67933087    -0.14470
C338        C  0.11485824  0.05911159  0.71978205    -0.14470
C339        C  0.11541624  0.06149216  0.78173486     0.07680
C340        C  0.10015017  0.08116965  0.80142141    -0.14470
H341        H  0.07091121  0.11042238  0.77819990     0.11660
H342        H  0.09717449  0.07101329  0.63245320     0.11660
H343        H  0.12543940  0.04366251  0.70302665     0.11660
H344        H  0.09933866  0.08293398  0.84902471     0.11660
C345        C  0.41578571  0.11593054  0.28858242    -0.14470
C346        C  0.43002365  0.13615389  0.26788829     0.07680
C347        C  0.42792145  0.14377884  0.20700384    -0.14470
C348        C  0.41429226  0.12966081  0.16685133    -0.14470
C349        C  0.40379981  0.10663264  0.18624351     0.07680
C350        C  0.40355727  0.10056666  0.24798352    -0.14470
H351        H  0.41654475  0.11034257  0.33603918     0.11660
H352        H  0.43878514  0.15913682  0.18985983     0.11660
H353        H  0.41454437  0.13544293  0.11966341     0.11660
H354        H  0.39520206  0.08344650  0.26463526     0.11660
C355        C  0.46067253  0.11871605  0.72943017    -0.14470
C356        C  0.45045253  0.14153987  0.70156635     0.07680
C357        C  0.42484574  0.14813377  0.70822049    -0.14470
C358        C  0.40997531  0.13174636  0.74203234    -0.14470
C359        C  0.41996221  0.10764580  0.76409695     0.07680
C360        C  0.44520299  0.10133584  0.75479736    -0.14470
H361        H  0.48008840  0.11278420  0.72544157     0.11660
H362        H  0.41624583  0.16546976  0.68587203     0.11660
H363        H  0.39052525  0.13715974  0.74746954     0.11660
H364        H  0.45347036  0.08257598  0.76753022     0.11660
C365        C  0.00945773  0.25751239  0.45916901    -0.14470
C366        C  0.01987912  0.23926795  0.50401609     0.07680
C367        C  0.03987831  0.24587274  0.54335591    -0.14470
C368        C  0.04942439  0.26996121  0.53758460    -0.14470
C369        C  0.03918380  0.28815365  0.49243830     0.07680
C370        C  0.01900340  0.28166479  0.45343203    -0.14470
H371        H  0.49402000  0.25307257  0.42805613     0.11660
H372        H  0.04861655  0.23224053  0.57776994     0.11660
H373        H  0.06493325  0.27429596  0.56867726     0.11660
H374        H  0.01039386  0.29531349  0.41888711     0.11660
C375        C  0.01661615  0.50073377  0.56593973    -0.14470
C376        C  0.04026780  0.49672486  0.54490726     0.07680
C377        C  0.04594884  0.00732893  0.48892753    -0.14470
C378        C  0.02807029  0.02282301  0.45451736    -0.14470
C379        C  0.00455085  0.02725857  0.47635548     0.07680
C380        C  0.99863374  0.01597649  0.53134737    -0.14470
H381        H  0.01165518  0.49108501  0.60721881     0.11660
H382        H  0.06408592  0.00337554  0.47211846     0.11660
H383        H  0.03286381  0.03198960  0.41240850     0.11660
H384        H  0.48044721  0.51965297  0.54840008     0.11660
Zr385      Zr  0.01888987  0.65168142  0.58036662     2.17510
O386        O  0.04223773  0.67493563  0.65461368    -0.52460
O387        O  0.48883803  0.65225234  0.65892206    -0.75660
O388        O  0.02021458  0.69715657  0.54979282    -0.82440
O389        O  0.04600388  0.58540656  0.63850816    -0.84190
O390        O  0.49879438  0.70664049  0.45847605    -0.79810
O391        O  0.05450497  0.62681984  0.64238998    -0.91450
O392        O  0.45300746  0.65675106  0.60137213    -0.77410
O393        O  0.47896826  0.66032900  0.52260598    -0.86900
O394        O  0.49512647  0.61465220  0.59352855    -0.86590
O395        O  0.02650004  0.66045416  0.47530740    -0.73350
O396        O  0.04254829  0.61901424  0.53845118    -0.85480
Zr397      Zr  0.49003275  0.59900164  0.38794516     2.26420
Zr398      Zr  0.48601203  0.66770390  0.41830200     2.06270
Zr399      Zr  0.01801189  0.58258136  0.55020011     2.10050
Zr400      Zr  0.45570747  0.62335928  0.53498706     1.78760
O401        O  0.05234408  0.55165507  0.54577810    -0.94290
O402        O  0.41579925  0.64645913  0.50466148    -0.42100
O403        O  0.47941091  0.59190945  0.49124772    -0.78730
O404        O  0.46344918  0.62955169  0.43188963    -0.97420
O405        O  0.01211819  0.63677106  0.37573191    -0.90720
O406        O  0.02900315  0.59020307  0.44916618    -0.93560
C407        C  0.46459959  0.65304106  0.65287097     1.00190
C408        C  0.05929841  0.60292875  0.65836408     1.13120
C409        C  0.51200289  0.71276120  0.50502088     1.03900
O410        O  0.45112143  0.69902230  0.41392053    -0.95720
O411        O  0.45306931  0.65983378  0.33946608    -0.91460
O412        O  0.47168829  0.62611404  0.30347463    -0.84610
C413        C  0.45293681  0.64172166  0.30448624     1.10540
O414        O  0.08529157  0.65356416  0.47104545    -0.97690
Zr415      Zr  0.05102469  0.62795688  0.43542922     1.88940
O416        O  0.02285185  0.58427816  0.32519389    -0.74340
O417        O  0.00310158  0.68986723  0.33280306    -0.53600
O418        O  0.05965244  0.65859826  0.35416572    -0.98280
O419        O  0.09055075  0.60388256  0.46455465    -0.55500
O420        O  0.05954728  0.60162042  0.35417581    -0.74860
C421        C  0.04661122  0.58713781  0.32159719     0.97490
O422        O  0.45905216  0.57391387  0.33630612    -0.63680
O423        O  0.50431959  0.55147387  0.62479530    -0.58480
O424        O  0.48682045  0.55422599  0.39601022    -0.95160
O425        O  0.98493984  0.56610446  0.48556214    -0.93590
O426        O  0.44687789  0.59320324  0.61691578    -0.93940
O427        O  0.41850316  0.59942772  0.51285353    -0.92730
C428        C  0.98940221  0.54862754  0.45164702     1.16330
H429        H  0.49341707  0.60898751  0.63473081     0.32270
H430        H  0.44653813  0.62970202  0.41316907     0.43130
H431        H  0.03844727  0.57568872  0.43777802     0.36650
H432        H  0.03660524  0.67498577  0.46986538     0.33130
H433        H  0.40792200  0.64882016  0.54255434     0.24920
H434        H  0.49144632  0.70479551  0.32254991     0.30860
H435        H  0.07339810  0.65048116  0.33402682     0.36770
H436        H  0.43007467  0.59878495  0.62838592     0.31230
H437        H  0.02002033  0.54315392  0.64473927     0.30100
H438        H  0.06756510  0.56168035  0.54411044     0.31780
H439        H  0.10108672  0.60705546  0.43052867     0.30750
H440        H  0.42273695  0.58973391  0.47864577     0.34750
H441        H  0.44326237  0.57636756  0.35607040     0.27480
H442        H  0.03049490  0.68873198  0.66414714     0.31720
H443        H  0.09708013  0.65442075  0.43900062     0.34570
H444        H  0.49742451  0.56153608  0.65571632     0.27180
H445        H  0.45577948  0.58181602  0.29500099     0.40050
H446        H  0.44710315  0.69993709  0.45608398     0.30100
H447        H  0.42058567  0.66358389  0.49066971     0.37720
H448        H  0.08626058  0.58597240  0.46292658     0.29570
H449        H  0.01881665  0.69690078  0.34963912     0.29630
H450        H  0.05546683  0.68346343  0.63308033     0.29900
Zr451      Zr  0.07113201  0.92617661  0.60567893     2.17510
O452        O  0.10973991  0.94950694  0.61713022    -0.52460
O453        O  0.03832750  0.93913411  0.66927109    -0.75660
O454        O  0.06382801  0.97043077  0.62132404    -0.82440
O455        O  0.11148213  0.87134733  0.65242636    -0.84190
O456        O  0.05473498  0.95601937  0.53691166    -0.79810
O457        O  0.08538709  0.89796179  0.69028398    -0.91450
O458        O  0.00258367  0.92058407  0.63676478    -0.77410
O459        O  0.03186422  0.93183829  0.54352486    -0.86900
O460        O  0.05039814  0.88711061  0.61628847    -0.86590
O461        O  0.08125254  0.93638765  0.50115065    -0.73350
O462        O  0.09918641  0.89588454  0.56694836    -0.85480
Zr463      Zr  0.04569878  0.87452223  0.41047325     2.26420
Zr464      Zr  0.04138221  0.94206285  0.44261323     2.06270
Zr465      Zr  0.07846416  0.85734668  0.57692772     2.10050
Zr466      Zr  0.01154761  0.89355059  0.55666541     1.78760
O467        O  0.11332545  0.82622199  0.57764159    -0.94290
O468        O  0.47162801  0.91642464  0.52512364    -0.42100
O469        O  0.03915816  0.86429600  0.51535145    -0.78730
O470        O  0.01852607  0.90411219  0.45365376    -0.97420
O471        O  0.06844814  0.91204447  0.40241775    -0.90720
O472        O  0.08507419  0.86619996  0.47239936    -0.93560
C473        C  0.01461202  0.93540514  0.67044250     1.00190
C474        C  0.10735537  0.88818500  0.68967990     1.13120
C475        C  0.05422629  0.97458216  0.56824463     1.03900
O476        O  0.00755340  0.97460379  0.43341569    -0.95720
O477        O  0.01167820  0.93871325  0.35843070    -0.91460
O478        O  0.01087105  0.89738214  0.33914969    -0.84610
C479        C  0.00259056  0.92096502  0.32946784     1.10540
O480        O  0.14312345  0.92829005  0.49856570    -0.97690
Zr481      Zr  0.10732852  0.90418532  0.46466573     1.88940
O482        O  0.07629861  0.88257687  0.33360059    -0.74340
O483        O  0.06221248  0.97189063  0.37697304    -0.53600
O484        O  0.12083080  0.93612398  0.39193058    -0.98280
O485        O  0.14445244  0.87716285  0.49949700    -0.55500
O486        O  0.11356839  0.87708480  0.38587195    -0.74860
C487        C  0.10057753  0.88238156  0.33674629     0.97490
O488        O  0.03197766  0.84500625  0.33776334    -0.63680
O489        O  0.06451542  0.83406105  0.66511453    -0.58480
O490        O  0.04107410  0.82976466  0.44413224    -0.95160
O491        O  0.06183271  0.81999581  0.53640283    -0.93590
O492        O  0.00154594  0.86217369  0.63493113    -0.93940
O493        O  0.47921242  0.86525929  0.52341176    -0.92730
C494        C  0.04821925  0.81425243  0.49004952     1.16330
H495        H  0.04676256  0.88212068  0.65688321     0.32270
H496        H  0.00147487  0.90569674  0.43575586     0.43130
H497        H  0.09423583  0.85176428  0.45954731     0.36650
H498        H  0.09137274  0.95110662  0.49606043     0.33130
H499        H  0.46150416  0.91458151  0.56026701     0.24920
H500        H  0.05150598  0.98767001  0.37291750     0.30860
H501        H  0.13642651  0.92871005  0.37766378     0.36770
H502        H  0.48753993  0.87006832  0.65432309     0.31230
H503        H  0.06895461  0.81611446  0.65993785     0.30100
H504        H  0.11417677  0.81724031  0.61804756     0.31780
H505        H  0.15430251  0.87609868  0.46401864     0.30750
H506        H  0.48488268  0.85932115  0.48562841     0.34750
H507        H  0.01337024  0.84544845  0.33773282     0.27480
H508        H  0.10817172  0.96400221  0.58654576     0.31720
H509        H  0.15763252  0.92264569  0.47703622     0.34570
H510        H  0.07628817  0.83842905  0.69869535     0.27180
H511        H  0.53530687  0.85336895  0.29830536     0.40050
H512        H  0.00747108  0.98285987  0.39236743     0.30100
H513        H  0.47585829  0.93444201  0.52223855     0.37720
H514        H  0.13803146  0.86005382  0.50642031     0.29570
H515        H  0.07782969  0.97603310  0.40027937     0.29630
H516        H  0.12305838  0.93820120  0.60371486     0.29900
Zr517      Zr  0.17194507  0.99993623  0.90938930     2.17510
O518        O  0.19590393  0.52199189  0.83481929    -0.52460
O519        O  0.17302291  0.96902182  0.83217488    -0.75660
O520        O  0.21700726  0.00213193  0.94256118    -0.82440
O521        O  0.10658789  0.52591126  0.84253390    -0.84190
O522        O  0.22619768  0.98202396  0.03546345    -0.79810
O523        O  0.14782396  0.53530563  0.84487742    -0.91450
O524        O  0.17660071  0.93289828  0.88930628    -0.77410
O525        O  0.18053366  0.96065295  0.97018715    -0.86900
O526        O  0.13530403  0.97568493  0.89529520    -0.86590
O527        O  0.17939234  0.50920836  0.01387230    -0.73350
O528        O  0.13838827  0.52429447  0.94589711    -0.85480
Zr529      Zr  0.11715838  0.97280566  0.09587405     2.26420
Zr530      Zr  0.18716890  0.96927134  0.07405824     2.06270
Zr531      Zr  0.10219074  0.49944531  0.93254686     2.10050
Zr532      Zr  0.14390175  0.93689731  0.95679095     1.78760
O533        O  0.07104164  0.53405831  0.93318008    -0.94290
O534        O  0.16716309  0.89739265  0.99082961    -0.42100
O535        O  0.11082879  0.96127226  0.99320004    -0.78730
O536        O  0.14973732  0.94602147  0.05964195    -0.97420
O537        O  0.15446330  0.99549653  0.10914725    -0.90720
O538        O  0.10866494  0.51135035  0.03253223    -0.93560
C539        C  0.17332755  0.94470135  0.83792967     1.00190
C540        C  0.12429197  0.53946295  0.82509603     1.13120
C541        C  0.23240555  0.99469263  0.98835914     1.03900
O542        O  0.21529255  0.93173868  0.07919163    -0.95720
O543        O  0.17766046  0.94192822  0.16350878    -0.91460
O544        O  0.14812292  0.96974288  0.17896784    -0.84610
C545        C  0.15868381  0.94814609  0.19199237     1.10540
O546        O  0.17072999  0.56902089  0.01513486    -0.97690
Zr547      Zr  0.14569918  0.53397952  0.04863062     1.88940
O548        O  0.09967952  0.00486116  0.15698470    -0.74340
O549        O  0.21088950  0.98732677  0.15631779    -0.53600
O550        O  0.17466252  0.54505791  0.13098571    -0.98280
O551        O  0.12043089  0.57229692  0.01404316    -0.55500
O552        O  0.11840669  0.54117578  0.12937957    -0.74860
C553        C  0.10321226  0.52862646  0.16083566     0.97490
O554        O  0.10123549  0.93201903  0.12994404    -0.63680
O555        O  0.07184467  0.98331050  0.85957529    -0.58480
O556        O  0.07257887  0.97196929  0.09421120    -0.95160
O557        O  0.08633157  0.96954569  0.00643009    -0.93590
O558        O  0.11539289  0.92582720  0.87367265    -0.93940
O559        O  0.11952533  0.90028867  0.98173457    -0.92730
C560        C  0.06827726  0.97470934  0.03806053     1.16330
H561        H  0.13012618  0.97322094  0.85414289     0.32270
H562        H  0.15121706  0.92974437  0.08203247     0.43130
H563        H  0.09403507  0.52091506  0.04267977     0.36650
H564        H  0.19361576  0.51971667  0.01930658     0.33130
H565        H  0.16854832  0.88831480  0.95413002     0.24920
H566        H  0.22706718  0.97726167  0.16171628     0.30860
H567        H  0.16557946  0.55867056  0.14967624     0.36770
H568        H  0.12199894  0.90912884  0.86342782     0.31230
H569        H  0.06423440  0.99842884  0.83536455     0.30100
H570        H  0.06478929  0.53811114  0.89074176     0.31780
H571        H  0.11939358  0.58191339  0.05000679     0.30750
H572        H  0.10510252  0.90718362  0.00172921     0.34750
H573        H  0.08922276  0.92735183  0.09715028     0.27480
H574        H  0.20993042  0.51007233  0.82761803     0.31720
H575        H  0.16863594  0.58205714  0.04394538     0.34810
H576        H  0.08223786  0.97463933  0.83185767     0.27180
H577        H  0.11546895  0.91953233  0.12927908     0.40050
H578        H  0.21999597  0.93046487  0.03764290     0.30100
H579        H  0.18451947  0.90238732  0.00169761     0.37720
H580        H  0.10316708  0.56652676  0.00558496     0.29570
H581        H  0.21535558  0.00416610  0.13946375     0.29630
H582        H  0.20399261  0.53581504  0.85531580     0.29900
Zr583      Zr  0.44419781  0.55182777  0.88024479     2.17510
O584        O  0.46735683  0.59060965  0.86818440    -0.52460
O585        O  0.45674351  0.51842222  0.81836573    -0.75660
O586        O  0.48785006  0.54439663  0.86219684    -0.82440
O587        O  0.38962834  0.59268299  0.83436496    -0.84190
O588        O  0.47414581  0.53437929  0.94718035    -0.79810
O589        O  0.41520753  0.56563271  0.79668102    -0.91450
O590        O  0.43977454  0.98251225  0.85638635    -0.77410
O591        O  0.45007447  0.51289468  0.94392452    -0.86900
O592        O  0.40507073  0.53122612  0.87187140    -0.86590
O593        O  0.45590935  0.56253037  0.98358679    -0.73350
O594        O  0.41486251  0.58048416  0.91912315    -0.85480
Zr595      Zr  0.39384670  0.52973451  0.07943913     2.26420
Zr596      Zr  0.46109017  0.52314175  0.04395197     2.06270
Zr597      Zr  0.37608233  0.56011252  0.91088423     2.10050
Zr598      Zr  0.41156377  0.99290529  0.93373102     1.78760
O599        O  0.34555081  0.59557420  0.90908476    -0.94290
O600        O  0.43290987  0.95248434  0.96877470    -0.42100
O601        O  0.38303192  0.52149633  0.97521535    -0.78730
O602        O  0.42243183  0.50132391  0.03592395    -0.97420
O603        O  0.43215055  0.55118239  0.08535333    -0.90720
O604        O  0.38580374  0.56798555  0.01387487    -0.93560
C605        C  0.45410013  0.49440858  0.82077280     1.00190
C606        C  0.40609125  0.58792284  0.79694912     1.13120
C607        C  0.99256963  0.53497752  0.91515587     1.03900
O608        O  0.49483875  0.99052339  0.05583986    -0.95720
O609        O  0.45785981  0.49262156  0.12637312    -0.91460
O610        O  0.41742390  0.49543077  0.15189303    -0.84610
C611        C  0.44041677  0.48534638  0.15862579     1.10540
O612        O  0.45212483  0.62384149  0.99838110    -0.97690
Zr613      Zr  0.42459127  0.58928665  0.02055326     1.88940
O614        O  0.39773206  0.56442061  0.15053653    -0.74340
O615        O  0.49153312  0.54380822  0.10850451    -0.53600
O616        O  0.45260261  0.59768172  0.10729875    -0.98280
O617        O  0.40399914  0.62889763  0.97657455    -0.55500
O618        O  0.39369460  0.59875684  0.08715019    -0.74860
C619        C  0.39672526  0.58878027  0.14002763     0.97490
O620        O  0.36584211  0.01559329  0.15481848    -0.63680
O621        O  0.35227863  0.54516645  0.82437082    -0.58480
O622        O  0.34906058  0.52493508  0.04684732    -0.95160
O623        O  0.33882636  0.54501997  0.95405155    -0.93590
O624        O  0.38066819  0.98265308  0.85451771    -0.93940
O625        O  0.38241770  0.96151902  0.96639463    -0.92730
C626        C  0.33330863  0.53189919  0.00125046     1.16330
H627        H  0.39980804  0.52714995  0.83169473     0.32270
H628        H  0.42336032  0.98428845  0.05455220     0.43130
H629        H  0.37072945  0.57688080  0.02404195     0.36650
H630        H  0.47097912  0.57216015  0.98742226     0.33130
H631        H  0.43110885  0.94200712  0.93411136     0.24920
H632        H  0.50655933  0.53206394  0.11473633     0.30860
H633        H  0.46986991  0.59488901  0.09497422     0.36770
H634        H  0.38900684  0.96883836  0.83491426     0.31230
H635        H  0.33437833  0.54871766  0.83117560     0.30100
H636        H  0.33476714  0.59461789  0.87145249     0.31780
H637        H  0.40012198  0.63865149  0.01092327     0.30750
H638        H  0.37681048  0.96733440  0.00435491     0.34750
H639        H  0.36630616  0.99693961  0.15455618     0.27480
H640        H  0.48266268  0.58868907  0.89632194     0.31720
H641        H  0.44916449  0.63631911  0.02809303     0.34570
H642        H  0.35554662  0.55728638  0.79048598     0.27180
H643        H  0.37476686  0.01883165  0.19365954     0.40050
H644        H  0.48914993  0.97767250  0.02862758     0.30100
H645        H  0.45102533  0.95611331  0.97270551     0.37720
H646        H  0.38735131  0.62404958  0.95950543     0.29570
H647        H  0.49689978  0.55849950  0.08376642     0.29630
H648        H  0.45672550  0.60377054  0.88445640     0.29900
C649        C  0.27694408  0.99287288  0.03496803    -0.14470
C650        C  0.25873213  0.00284168  0.98955530     0.07680
C651        C  0.26506565  0.52291173  0.94909815    -0.14470
C652        C  0.28898723  0.53273723  0.95445016    -0.14470
C653        C  0.30719289  0.52307957  0.00019037     0.07680
C654        C  0.30076310  0.50341482  0.04069101    -0.14470
H655        H  0.27251115  0.97776769  0.06701715     0.11660
H656        H  0.25147311  0.53110195  0.91393349     0.11660
H657        H  0.29323730  0.54788292  0.92230030     0.11660
H658        H  0.31472548  0.99412322  0.07489090     0.11660
C659        C  0.02603538  0.53009162  0.99320268    -0.14470
C660        C  0.01565348  0.52287478  0.93834374     0.07680
C661        C  0.02102912  0.49905012  0.91917090    -0.14470
C662        C  0.03671700  0.98225140  0.95543664    -0.14470
C663        C  0.04719441  0.98935345  0.01023297     0.07680
C664        C  0.04189470  0.51320356  0.02953831    -0.14470
H665        H  0.02129236  0.54846951  0.00810680     0.11660
H666        H  0.51182751  0.99281865  0.87865275     0.11660
H667        H  0.04115450  0.96378975  0.94031069     0.11660
H668        H  0.05056271  0.51897847  0.07133477     0.11660
C669        C  0.13795684  0.88778738  0.27511851    -0.14470
C670        C  0.11363280  0.89578366  0.28902312     0.07680
C671        C  0.10508087  0.92065675  0.27191550    -0.14470
C672        C  0.12094113  0.93769792  0.24586519    -0.14470
C673        C  0.14494089  0.92984578  0.22960179     0.07680
C674        C  0.15318216  0.90447089  0.24371756    -0.14470
H675        H  0.14534826  0.86887521  0.28985144     0.11660
H676        H  0.08692922  0.92769503  0.28403918     0.11660
H677        H  0.11369764  0.95702575  0.23605129     0.11660
H678        H  0.17143396  0.89774150  0.23171683     0.11660
C679        C  0.12223300  0.92711898  0.73149750    -0.14470
C680        C  0.12757707  0.90152507  0.72290108     0.07680
C681        C  0.15101364  0.89059591  0.74696525    -0.14470
C682        C  0.16760407  0.90492054  0.78203433    -0.14470
C683        C  0.16196448  0.93085829  0.78820407     0.07680
C684        C  0.13990763  0.94194843  0.75833598    -0.14470
H685        H  0.10388987  0.93607327  0.71785089     0.11660
H686        H  0.15565794  0.87084757  0.74228475     0.11660
H687        H  0.18428933  0.89563686  0.80584911     0.11660
H688        H  0.13466987  0.96164068  0.76183220     0.11660
C689        C  0.46230030  0.94728586  0.30534151    -0.14470
C690        C  0.48037068  0.92983521  0.28629421     0.07680
C691        C  0.48066022  0.92760469  0.22452601    -0.14470
C692        C  0.46511561  0.94392457  0.18336499    -0.14470
C693        C  0.44881198  0.96305083  0.20240076     0.07680
C694        C  0.44676643  0.96362925  0.26417430    -0.14470
H695        H  0.46177689  0.94985465  0.35268577     0.11660
H696        H  0.99472933  0.91530407  0.20765778     0.11660
H697        H  0.46743895  0.94302839  0.13601504     0.11660
H698        H  0.43501794  0.97822889  0.28084538     0.11660
C699        C  0.47683655  0.94073521  0.73094952    -0.14470
C700        C  0.99974631  0.94986575  0.71143577     0.07680
C701        C  0.50703241  0.97348411  0.72800487    -0.14470
C702        C  0.49176312  0.98824704  0.76141405    -0.14470
C703        C  0.46915877  0.97918453  0.78161203     0.07680
C704        C  0.46203982  0.95509661  0.76643160    -0.14470
H705        H  0.97065553  0.92270189  0.71902156     0.11660
H706        H  0.52437177  0.98103851  0.71372757     0.11660
H707        H  0.49807240  0.50675123  0.77242070     0.11660
H708        H  0.44482925  0.94747909  0.78133097     0.11660
C709        C  0.05128297  0.54964033  0.25841071    -0.14470
C710        C  0.06040733  0.57230551  0.27887420     0.07680
C711        C  0.08381015  0.58003015  0.26075600    -0.14470
C712        C  0.09754574  0.56578215  0.22304306    -0.14470
C713        C  0.08863794  0.54301313  0.20296315     0.07680
C714        C  0.06530892  0.53508134  0.22135709    -0.14470
H715        H  0.03349036  0.54291508  0.27190482     0.11660
H716        H  0.09154742  0.59726719  0.27560381     0.11660
H717        H  0.11536698  0.57257496  0.20990034     0.11660
H718        H  0.05770580  0.51781264  0.20635198     0.11660
C719        C  0.08378338  0.59696915  0.76080219    -0.14470
C720        C  0.08193679  0.59334798  0.69924032     0.07680
C721        C  0.09836862  0.57472268  0.67928923    -0.14470
C722        C  0.11480350  0.55904650  0.71970076    -0.14470
C723        C  0.11540953  0.56144479  0.78165076     0.07680
C724        C  0.10018672  0.58114490  0.80137626    -0.14470
H725        H  0.07096898  0.61042482  0.77822282     0.11660
H726        H  0.09707838  0.57094714  0.63241821     0.11660
H727        H  0.12535273  0.54358050  0.70292544     0.11660
H728        H  0.09941402  0.58292253  0.84898483     0.11660
C729        C  0.41577489  0.61586913  0.28859463    -0.14470
C730        C  0.43002420  0.63608817  0.26792907     0.07680
C731        C  0.42792828  0.64372711  0.20705207    -0.14470
C732        C  0.41429439  0.62962370  0.16687710    -0.14470
C733        C  0.40379256  0.60659818  0.18624330     0.07680
C734        C  0.40354455  0.60051823  0.24797436    -0.14470
H735        H  0.41652445  0.61027592  0.33604635     0.11660
H736        H  0.43880074  0.65908231  0.18993067     0.11660
H737        H  0.41454880  0.63541341  0.11969326     0.11660
H738        H  0.39517959  0.58339951  0.26460158     0.11660
C739        C  0.46071765  0.61879022  0.72955291    -0.14470
C740        C  0.45048451  0.64159342  0.70160265     0.07680
C741        C  0.42486720  0.64816891  0.70818747    -0.14470
C742        C  0.40999746  0.63178029  0.74199670    -0.14470
C743        C  0.41999882  0.60769467  0.76413223     0.07680
C744        C  0.44525324  0.60140453  0.75492064    -0.14470
H745        H  0.48014180  0.61287218  0.72561749     0.11660
H746        H  0.41625752  0.66548796  0.68577477     0.11660
H747        H  0.39053682  0.63717658  0.74736358     0.11660
H748        H  0.45353109  0.58265226  0.76769511     0.11660
C749        C  0.00946559  0.75749901  0.45915628    -0.14470
C750        C  0.01989852  0.73925705  0.50399638     0.07680
C751        C  0.03990357  0.74586706  0.54331202    -0.14470
C752        C  0.04944152  0.76995926  0.53752863    -0.14470
C753        C  0.03918658  0.78815075  0.49239475     0.07680
C754        C  0.01900298  0.78165509  0.45340743    -0.14470
H755        H  0.49411083  0.75301382  0.42786993     0.11660
H756        H  0.04865106  0.73223684  0.57771853     0.11660
H757        H  0.06495409  0.77429845  0.56860569     0.11660
H758        H  0.01038306  0.79530204  0.41887197     0.11660
C759        C  0.01660414  0.00077149  0.56587552    -0.14470
C760        C  0.04025713  0.99673668  0.54487196     0.07680
C761        C  0.04594140  0.50733386  0.48896487    -0.14470
C762        C  0.02804654  0.52282069  0.45459029    -0.14470
C763        C  0.00452998  0.52723458  0.47646350     0.07680
C764        C  0.99862976  0.51593302  0.53144823    -0.14470
H765        H  0.01162907  0.99113768  0.60716075     0.11660
H766        H  0.06407670  0.50339850  0.47212819     0.11660
H767        H  0.03282527  0.53199809  0.41248022     0.11660
H768        H  0.48021734  0.01971023  0.54815910     0.11660
Zr769      Zr  0.51887815  0.15168800  0.58032664     2.17510
O770        O  0.54221347  0.17493535  0.65460863    -0.52460
O771        O  0.98879453  0.15227261  0.65889231    -0.75660
O772        O  0.52017979  0.19717236  0.54984477    -0.82440
O773        O  0.54615712  0.08541235  0.63809316    -0.84190
O774        O  0.99875210  0.20666957  0.45848695    -0.79810
O775        O  0.55448977  0.12684969  0.64240659    -0.91450
O776        O  0.95297027  0.15676471  0.60131679    -0.77410
O777        O  0.97893796  0.16034518  0.52258880    -0.86900
O778        O  0.99510143  0.11466820  0.59351150    -0.86590
O779        O  0.52648936  0.16050273  0.47527951    -0.73350
O780        O  0.54255882  0.11906141  0.53832629    -0.85480
Zr781      Zr  0.99002987  0.09903078  0.38791636     2.26420
Zr782      Zr  0.98598829  0.16773149  0.41829171     2.06270
Zr783      Zr  0.51805197  0.08260484  0.54996838     2.10050
Zr784      Zr  0.95568547  0.12336900  0.53494587     1.78760
O785        O  0.55235662  0.05166858  0.54529944    -0.94290
O786        O  0.91576719  0.14645108  0.50462742    -0.42100
O787        O  0.97940026  0.09192685  0.49121095    -0.78730
O788        O  0.96343163  0.12957377  0.43184629    -0.97420
O789        O  0.51212689  0.13686007  0.37562782    -0.90720
O790        O  0.52903385  0.09026497  0.44894270    -0.93560
C791        C  0.96455623  0.15306011  0.65282361     1.00190
C792        C  0.55936090  0.10295370  0.65818429     1.13120
C793        C  0.01195504  0.21278834  0.50504186     1.03900
O794        O  0.95107849  0.19902842  0.41390458    -0.95720
O795        O  0.95308171  0.15984421  0.33938448    -0.91460
O796        O  0.97179745  0.12618292  0.30340157    -0.84610
C797        C  0.95300992  0.14174774  0.30436528     1.10540
O798        O  0.58528255  0.15368436  0.47088067    -0.97690
Zr799      Zr  0.55103459  0.12804207  0.43531969     1.88940
O800        O  0.52290770  0.08436685  0.32505124    -0.74340
O801        O  0.50309633  0.18994690  0.33282309    -0.53600
O802        O  0.55964925  0.15868949  0.35405582    -0.98280
O803        O  0.59056440  0.10398944  0.46454254    -0.55500
O804        O  0.55959354  0.10171538  0.35408194    -0.74860
C805        C  0.54666815  0.08722911  0.32149325     0.97490
O806        O  0.95899949  0.07399482  0.33630122    -0.63680
O807        O  0.00429194  0.05151282  0.62478482    -0.58480
O808        O  0.98683456  0.05425236  0.39590198    -0.95160
O809        O  0.48492576  0.06616803  0.48540115    -0.93590
O810        O  0.94686345  0.09321478  0.61688687    -0.93940
O811        O  0.91849359  0.09942012  0.51280714    -0.92730
C812        C  0.48934249  0.04868312  0.45147344     1.16330
H813        H  0.99338943  0.10900421  0.63471336     0.32270
H814        H  0.94652514  0.12972730  0.41309704     0.43130
H815        H  0.53847831  0.07575314  0.43753862     0.36650
H816        H  0.53658653  0.17504221  0.46987218     0.33130
H817        H  0.90788790  0.14880408  0.54252137     0.24920
H818        H  0.99142325  0.20483950  0.32257536     0.30860
H819        H  0.57340176  0.15058139  0.33392234     0.36770
H820        H  0.93005865  0.09879256  0.62835457     0.31230
H821        H  0.52014043  0.04315592  0.64445667     0.30100
H822        H  0.56761072  0.06166457  0.54410106     0.31780
H823        H  0.60110072  0.10713674  0.43050705     0.30750
H824        H  0.92272767  0.08973917  0.47857883     0.34750
H825        H  0.94320911  0.07651146  0.35602457     0.27480
H826        H  0.53046298  0.18871976  0.66417154     0.31720
H827        H  0.59708978  0.15450663  0.43887370     0.34570
H828        H  0.99739998  0.06158099  0.65569894     0.27180
H829        H  0.95576336  0.08188562  0.29497716     0.40050
H830        H  0.94705902  0.19994134  0.45606768     0.30100
H831        H  0.92054525  0.16357989  0.49064436     0.37720
H832        H  0.58627632  0.08607570  0.46299236     0.29570
H833        H  0.51880490  0.19698412  0.34968542     0.29630
H834        H  0.55543649  0.18347896  0.63308661     0.29900
Zr835      Zr  0.57116980  0.42616531  0.60568534     2.17510
O836        O  0.60977107  0.44950727  0.61713078    -0.52460
O837        O  0.53835707  0.43910761  0.66928764    -0.75660
O838        O  0.56385443  0.47041587  0.62133687    -0.82440
O839        O  0.61153220  0.37133998  0.65243306    -0.84190
O840        O  0.55477447  0.45600814  0.53691216    -0.79810
O841        O  0.58543550  0.39795418  0.69029004    -0.91450
O842        O  0.50262637  0.42053651  0.63677952    -0.77410
O843        O  0.53190224  0.43181811  0.54352912    -0.86900
O844        O  0.55044643  0.38709386  0.61629410    -0.86590
O845        O  0.58128905  0.43637772  0.50115358    -0.73350
O846        O  0.59923002  0.39587841  0.56695137    -0.85480
Zr847      Zr  0.54574235  0.37450687  0.41047739     2.26420
Zr848      Zr  0.54141719  0.44204789  0.44261568     2.06270
Zr849      Zr  0.57851756  0.35733493  0.57693534     2.10050
Zr850      Zr  0.51159605  0.39352349  0.55666722     1.78760
O851        O  0.61337926  0.32621255  0.57761890    -0.94290
O852        O  0.97174378  0.41661839  0.52515528    -0.42100
O853        O  0.53921258  0.36427799  0.51535793    -0.78730
O854        O  0.51856982  0.40409281  0.45366364    -0.97420
O855        O  0.56848664  0.41203305  0.40241848    -0.90720
O856        O  0.58512110  0.36618915  0.47240233    -0.93560
C857        C  0.51464433  0.43536035  0.67046356     1.00190
C858        C  0.60740438  0.38817843  0.68968385     1.13120
C859        C  0.55425277  0.47456686  0.56825735     1.03900
O860        O  0.50757913  0.47457852  0.43342426    -0.95720
O861        O  0.51169883  0.43868678  0.35845121    -0.91460
O862        O  0.51088984  0.39735432  0.33918685    -0.84610
C863        C  0.50260105  0.42093599  0.32950970     1.10540
O864        O  0.64316257  0.42828743  0.49855812    -0.97690
Zr865      Zr  0.60736886  0.40417899  0.46466524     1.88940
O866        O  0.57633933  0.38256636  0.33360186    -0.74340
O867        O  0.56223493  0.47188809  0.37697934    -0.53600
O868        O  0.62086155  0.43612013  0.39192247    -0.98280
O869        O  0.64450013  0.37716483  0.49948722    -0.55500
O870        O  0.61360986  0.37707875  0.38587131    -0.74860
C871        C  0.60061806  0.38237454  0.33674641     0.97490
O872        O  0.53204653  0.34498422  0.33776123    -0.63680
O873        O  0.56458016  0.33405072  0.66513824    -0.58480
O874        O  0.54110231  0.32975733  0.44418230    -0.95160
O875        O  0.56186493  0.31998623  0.53644862    -0.93590
O876        O  0.50159274  0.36214257  0.63492190    -0.93940
O877        O  0.97922612  0.36544110  0.52342848    -0.92730
C878        C  0.54824224  0.31424669  0.49010601     1.16330
H879        H  0.54681186  0.38210352  0.65688933     0.32270
H880        H  0.50151568  0.40567398  0.43578592     0.43130
H881        H  0.59428459  0.35175471  0.45954977     0.36650
H882        H  0.59140881  0.45109698  0.49606049     0.33130
H883        H  0.96162080  0.41479221  0.56030317     0.24920
H884        H  0.55152216  0.48766337  0.37292925     0.30860
H885        H  0.63645784  0.42870927  0.37765175     0.36770
H886        H  0.98757280  0.37023877  0.65431559     0.31230
H887        H  0.56903455  0.31610558  0.65998231     0.30100
H888        H  0.61424077  0.31723450  0.61803015     0.31780
H889        H  0.65434721  0.37610028  0.46400401     0.30750
H890        H  0.98488519  0.35947955  0.48565732     0.34750
H891        H  0.51343953  0.34541066  0.33773554     0.27480
H892        H  0.60819787  0.46400335  0.58654844     0.31720
H893        H  0.65766971  0.42264982  0.47701348     0.34570
H894        H  0.57634528  0.33843356  0.69871832     0.27180
H895        H  0.03524152  0.35336336  0.29838064     0.40050
H896        H  0.50749297  0.48283484  0.39237539     0.30100
H897        H  0.97600902  0.43462598  0.52228219     0.37720
H898        H  0.63808306  0.36005467  0.50642097     0.29570
H899        H  0.57784960  0.47603605  0.40028808     0.29630
H900        H  0.62309211  0.43820601  0.60371030     0.29900
Zr901      Zr  0.67198033  0.49992666  0.90939281     2.17510
O902        O  0.69593592  0.02203063  0.83492106    -0.52460
O903        O  0.67307025  0.46901411  0.83217697    -0.75660
O904        O  0.71703863  0.50213824  0.94256807    -0.82440
O905        O  0.60654648  0.02621183  0.84309473    -0.84190
O906        O  0.72622937  0.48204288  0.03548344    -0.79810
O907        O  0.64785835  0.03530196  0.84473311    -0.91450
O908        O  0.67665555  0.43288929  0.88930508    -0.77410
O909        O  0.68058020  0.46064987  0.97021028    -0.86900
O910        O  0.63535355  0.47565645  0.89529678    -0.86590
O911        O  0.67944199  0.00918672  0.01391365    -0.73350
O912        O  0.63843226  0.02431465  0.94601599    -0.85480
Zr913      Zr  0.61718944  0.47278833  0.09586150     2.26420
Zr914      Zr  0.68720246  0.46928002  0.07407587     2.06270
Zr915      Zr  0.60220357  0.99950276  0.93272089     2.10050
Zr916      Zr  0.64396105  0.43687583  0.95680861     1.78760
O917        O  0.57099116  0.03405248  0.93343771    -0.94290
O918        O  0.66724828  0.39738773  0.99086880    -0.42100
O919        O  0.61087226  0.46124078  0.99318656    -0.78730
O920        O  0.64978248  0.44601245  0.05965484    -0.97420
O921        O  0.65448263  0.49549630  0.10913718    -0.90720
O922        O  0.60871554  0.01138527  0.03270691    -0.93560
C923        C  0.67337832  0.44469349  0.83792961     1.00190
C924        C  0.62430129  0.03959979  0.82528040     1.13120
C925        C  0.73243656  0.49470682  0.98837134     1.03900
O926        O  0.71534388  0.43175906  0.07925168    -0.95720
O927        O  0.67769667  0.44193792  0.16353038    -0.91460
O928        O  0.64814840  0.46974478  0.17896320    -0.84610
C929        C  0.65871468  0.44815143  0.19200044     1.10540
O930        O  0.67084278  0.06900148  0.01529020    -0.97690
Zr931      Zr  0.64578067  0.03397916  0.04874715     1.88940
O932        O  0.59969015  0.50483763  0.15695760    -0.74340
O933        O  0.71090460  0.48735576  0.15633228    -0.53600
O934        O  0.67477424  0.04500043  0.13110157    -0.98280
O935        O  0.62055175  0.07232377  0.01417622    -0.55500
O936        O  0.61850311  0.04119709  0.12950021    -0.74860
C937        C  0.60330577  0.02865713  0.16096485     0.97490
O938        O  0.60127905  0.43199484  0.12992637    -0.63680
O939        O  0.57189071  0.48324865  0.85956020    -0.58480
O940        O  0.57261010  0.47194742  0.09422696    -0.95160
O941        O  0.58640872  0.46952825  0.00649165    -0.93590
O942        O  0.61546014  0.42578335  0.87369790    -0.93940
O943        O  0.61960490  0.40025361  0.98176407    -0.92730
C944        C  0.56833389  0.47467976  0.03807056     1.16330
H945        H  0.63017734  0.47318685  0.85414560     0.32270
H946        H  0.65126726  0.42973711  0.08205316     0.43130
H947        H  0.59409216  0.02095729  0.04287186     0.36650
H948        H  0.69368886  0.01966599  0.01934361     0.33130
H949        H  0.66863391  0.38830428  0.95417761     0.24920
H950        H  0.72708665  0.47729830  0.16174509     0.30860
H951        H  0.66570849  0.05861182  0.14983528     0.36770
H952        H  0.62207906  0.40909009  0.86345137     0.31230
H953        H  0.56428145  0.49835997  0.83532018     0.30100
H954        H  0.56462775  0.03802036  0.89104460     0.31780
H955        H  0.61951098  0.08193152  0.05015269     0.30750
H956        H  0.60517800  0.40714176  0.00175547     0.34750
H957        H  0.58926763  0.42732555  0.09713229     0.27480
H958        H  0.70994203  0.01009822  0.82765728     0.31720
H959        H  0.66876786  0.08202992  0.04412845     0.34810
H960        H  0.58228749  0.47456800  0.83186525     0.27180
H961        H  0.61551583  0.41951201  0.12926099     0.40050
H962        H  0.72005392  0.43048316  0.03770886     0.30100
H963        H  0.68460233  0.40239436  0.00171588     0.37720
H964        H  0.60328431  0.06657000  0.00567440     0.29570
H965        H  0.71536406  0.50419598  0.13946946     0.29630
H966        H  0.70405239  0.03581843  0.85549436     0.29900
Zr967      Zr  0.94420570  0.05197103  0.88030369     2.17510
O968        O  0.96727459  0.09081315  0.86823356    -0.52460
O969        O  0.95683889  0.01852915  0.81854429    -0.75660
O970        O  0.98788531  0.04459829  0.86239669    -0.82440
O971        O  0.88956057  0.09267213  0.83427100    -0.84190
O972        O  0.97420848  0.03481957  0.94751403    -0.79810
O973        O  0.91519889  0.06565721  0.79668399    -0.91450
O974        O  0.93990876  0.48261370  0.85630084    -0.77410
O975        O  0.95017076  0.01309919  0.94416781    -0.86900
O976        O  0.90514953  0.03125369  0.87188299    -0.86590
O977        O  0.95571975  0.06286076  0.98360590    -0.73350
O978        O  0.91476032  0.08054693  0.91906478    -0.85480
Zr979      Zr  0.89385013  0.02969547  0.07950906     2.26420
Zr980      Zr  0.96108412  0.02349042  0.04415224     2.06270
Zr981      Zr  0.87605375  0.06006133  0.91079118     2.10050
Zr982      Zr  0.91167334  0.49295376  0.93363666     1.78760
O983        O  0.84535933  0.09538365  0.90904630    -0.94290
O984        O  0.93305368  0.45254495  0.96863726    -0.42100
O985        O  0.88319773  0.02152627  0.97523393    -0.78730
O986        O  0.92258036  0.00143358  0.03604826    -0.97420
O987        O  0.93198734  0.05140536  0.08543917    -0.90720
O988        O  0.88555962  0.06794842  0.01390004    -0.93560
C989        C  0.95418732  0.99451356  0.82087188     1.00190
C990        C  0.90604639  0.08793444  0.79689109     1.13120
C991        C  0.49250150  0.03482285  0.91518193     1.03900
O992        O  0.99487669  0.49060401  0.05575802    -0.95720
O993        O  0.95795717  0.99295962  0.12669766    -0.91460
O994        O  0.91746361  0.99544844  0.15188851    -0.84610
C995        C  0.94050744  0.98551974  0.15875655     1.10540
O996        O  0.95060140  0.12502926  0.99895684    -0.97690
Zr997      Zr  0.92421660  0.08945968  0.02051422     1.88940
O998        O  0.89773871  0.06424798  0.15090512    -0.74340
O999        O  0.99147385  0.04425082  0.10863351    -0.53600
O1000       O  0.95282488  0.09765061  0.10638130    -0.98280
O1001       O  0.90313498  0.12881315  0.97632956    -0.55500
O1002       O  0.89333961  0.09853234  0.08751010    -0.74860
C1003       C  0.89663035  0.08859768  0.14037620     0.97490
O1004       O  0.86588436  0.51553524  0.15467354    -0.63680
O1005       O  0.85225689  0.04516309  0.82421640    -0.58480
O1006       O  0.84924503  0.02424059  0.04666017    -0.95160
O1007       O  0.83904362  0.04427027  0.95379249    -0.93590
O1008       O  0.88080352  0.48268148  0.85438809    -0.93940
O1009       O  0.88256313  0.46152391  0.96625899    -0.92730
C1010       C  0.83354731  0.03106795  0.00089601     1.16330
H1011       H  0.89990828  0.02714507  0.83171836     0.32270
H1012       H  0.92346870  0.48433683  0.05447165     0.43130
H1013       H  0.87042883  0.07676522  0.02400465     0.36650
H1014       H  0.97071595  0.07260314  0.98745033     0.33130
H1015       H  0.93125272  0.44207059  0.93396868     0.24920
H1016       H  0.00651309  0.03252465  0.11493051     0.30860
H1017       H  0.96996404  0.09572202  0.09267346     0.36770
H1018       H  0.88916049  0.46887897  0.83478068     0.31230
H1019       H  0.83435516  0.04869577  0.83103862     0.30100
H1020       H  0.83471573  0.09451552  0.87116997     0.31780
H1021       H  0.89814986  0.13807278  0.01058878     0.30750
H1022       H  0.87695702  0.46731620  0.00424213     0.34750
H1023       H  0.86637631  0.49688199  0.15438740     0.27480
H1024       H  0.98263062  0.08888761  0.89620903     0.31720
H1025       H  0.94755234  0.13708374  0.02956692     0.34570
H1026       H  0.85551582  0.05730679  0.79037112     0.27180
H1027       H  0.87479398  0.51877698  0.19352977     0.40050
H1028       H  0.98917488  0.47775592  0.02855207     0.30100
H1029       H  0.95116604  0.45618723  0.97254523     0.37720
H1030       H  0.88702471  0.12361022  0.95702598     0.29570
H1031       H  0.99682715  0.05892556  0.08381574     0.29630
H1032       H  0.95666098  0.10392732  0.88472931     0.29900
C1033       C  0.77697698  0.49289114  0.03496663    -0.14470
C1034       C  0.75876297  0.50285571  0.98955485     0.07680
C1035       C  0.76524084  0.02245716  0.94909830    -0.14470
C1036       C  0.78925746  0.03203998  0.95422839    -0.14470
C1037       C  0.80749146  0.02214031  0.99962136     0.07680
C1038       C  0.80105521  0.00237249  0.03983045    -0.14470
H1039       H  0.77254387  0.47779309  0.06703444     0.11660
H1040       H  0.75161397  0.03087427  0.91428448     0.11660
H1041       H  0.79352586  0.04726117  0.92230102     0.11660
H1042       H  0.81476268  0.49413882  0.07486284     0.11660
C1043       C  0.52594980  0.03004473  0.99328527    -0.14470
C1044       C  0.51559916  0.02277239  0.93844918     0.07680
C1045       C  0.52103821  0.99894687  0.91935868    -0.14470
C1046       C  0.53680288  0.48211193  0.95538687    -0.14470
C1047       C  0.54723871  0.48927570  0.01015951     0.07680
C1048       C  0.54184426  0.01321172  0.02968573    -0.14470
H1049       H  0.52116391  0.04842648  0.00810863     0.11660
H1050       H  0.01178854  0.49296283  0.87846041     0.11660
H1051       H  0.54128072  0.46364099  0.94036124     0.11660
H1052       H  0.55049923  0.01903372  0.07144870     0.11660
C1053       C  0.63799826  0.38778872  0.27512735    -0.14470
C1054       C  0.61367098  0.39577865  0.28902222     0.07680
C1055       C  0.60511183  0.42064872  0.27190278    -0.14470
C1056       C  0.62096825  0.43769366  0.24585124    -0.14470
C1057       C  0.64497247  0.42984798  0.22960285     0.07680
C1058       C  0.65322067  0.40447573  0.24372858    -0.14470
H1059       H  0.64539473  0.36887907  0.28986834     0.11660
H1060       H  0.58695708  0.42768225  0.28401797     0.11660
H1061       H  0.61371919  0.45701916  0.23602738     0.11660
H1062       H  0.67147579  0.39775125  0.23173821     0.11660
C1063       C  0.62228334  0.42711282  0.73149584    -0.14470
C1064       C  0.62762601  0.40151840  0.72290383     0.07680
C1065       C  0.65106191  0.39058826  0.74696930    -0.14470
C1066       C  0.66765308  0.40491250  0.78203683    -0.14470
C1067       C  0.66201498  0.43085069  0.78820350     0.07680
C1068       C  0.63995917  0.44194184  0.75833132    -0.14470
H1069       H  0.60394027  0.43606728  0.71785066     0.11660
H1070       H  0.65570496  0.37083946  0.74229143     0.11660
H1071       H  0.68433759  0.39562814  0.80585347     0.11660
H1072       H  0.63472321  0.46163500  0.76182067     0.11660
C1073       C  0.96241368  0.44738056  0.30532062    -0.14470
C1074       C  0.98046964  0.42991729  0.28626863     0.07680
C1075       C  0.98074863  0.42768068  0.22449887    -0.14470
C1076       C  0.96520217  0.44400004  0.18333827    -0.14470
C1077       C  0.94890224  0.46312812  0.20237513     0.07680
C1078       C  0.94687355  0.46371918  0.26415380    -0.14470
H1079       H  0.96190218  0.44995747  0.35266372     0.11660
H1080       H  0.49457519  0.41510281  0.20778241     0.11660
H1081       H  0.96751714  0.44309855  0.13598601     0.11660
H1082       H  0.93513135  0.47832393  0.28082468     0.11660
C1083       C  0.97701458  0.44085658  0.73094698    -0.14470
C1084       C  0.49976128  0.44979773  0.71146504     0.07680
C1085       C  0.00719185  0.47362131  0.72796924    -0.14470
C1086       C  0.99190447  0.48838849  0.76133688    -0.14470
C1087       C  0.96930585  0.47931458  0.78154983     0.07680
C1088       C  0.96220701  0.45521661  0.76640394    -0.14470
H1089       H  0.47070208  0.42259679  0.71901566     0.11660
H1090       H  0.02453156  0.48117855  0.71370320     0.11660
H1091       H  0.99814979  0.00682056  0.77241881     0.11660
H1092       H  0.94500217  0.44758873  0.78131096     0.11660
C1093       C  0.55135182  0.04971848  0.25837979    -0.14470
C1094       C  0.56047827  0.07238452  0.27882862     0.07680
C1095       C  0.58389643  0.08009100  0.26077394    -0.14470
C1096       C  0.59764479  0.06582364  0.22312688    -0.14470
C1097       C  0.58873188  0.04305544  0.20305744     0.07680
C1098       C  0.56538915  0.03514119  0.22139365    -0.14470
H1099       H  0.53354780  0.04300710  0.27183256     0.11660
H1100       H  0.59163529  0.09732764  0.27561993     0.11660
H1101       H  0.61547714  0.07260162  0.21002124     0.11660
H1102       H  0.55778304  0.01787374  0.20638836     0.11660
C1103       C  0.58377075  0.09704277  0.76070794    -0.14470
C1104       C  0.58197971  0.09339987  0.69916115     0.07680
C1105       C  0.59846466  0.07479349  0.67931327    -0.14470
C1106       C  0.61489957  0.05915376  0.71981370    -0.14470
C1107       C  0.61544196  0.06156431  0.78175200     0.07680
C1108       C  0.60016428  0.08124981  0.80136837    -0.14470
H1109       H  0.57091908  0.11048641  0.77804795     0.11660
H1110       H  0.59722034  0.07100449  0.63245019     0.11660
H1111       H  0.62549107  0.04369837  0.70311278     0.11660
H1112       H  0.59934342  0.08303815  0.84896030     0.11660
C1113       C  0.91578695  0.11596256  0.28859426    -0.14470
C1114       C  0.93013255  0.13607186  0.26773180     0.07680
C1115       C  0.92817155  0.14351295  0.20674606    -0.14470
C1116       C  0.91453495  0.12934315  0.16672253    -0.14470
C1117       C  0.90388739  0.10644078  0.18637424     0.07680
C1118       C  0.90354623  0.10053999  0.24815222    -0.14470
H1119       H  0.91646058  0.11049874  0.33610231     0.11660
H1120       H  0.93913060  0.15876968  0.18947392     0.11660
H1121       H  0.91485342  0.13498565  0.11947187     0.11660
H1122       H  0.89506597  0.08351821  0.26496926     0.11660
C1123       C  0.96067359  0.11882460  0.72953806    -0.14470
C1124       C  0.95043526  0.14161818  0.70155139     0.07680
C1125       C  0.92481298  0.14818571  0.70810363    -0.14470
C1126       C  0.90994165  0.13179587  0.74190977    -0.14470
C1127       C  0.91995053  0.10771789  0.76408984     0.07680
C1128       C  0.94521349  0.10143948  0.75492182    -0.14470
H1129       H  0.98010131  0.11291203  0.72562394     0.11660
H1130       H  0.91620048  0.16549812  0.68566306     0.11660
H1131       H  0.89047605  0.13718482  0.74724050     0.11660
H1132       H  0.95350519  0.08269713  0.76775657     0.11660
C1133       C  0.50942833  0.25753079  0.45928681    -0.14470
C1134       C  0.51986315  0.23928054  0.50410431     0.07680
C1135       C  0.53988364  0.24587480  0.54339549    -0.14470
C1136       C  0.54943947  0.26995832  0.53759857    -0.14470
C1137       C  0.53918731  0.28815516  0.49247496     0.07680
C1138       C  0.51898397  0.28167753  0.45352359    -0.14470
H1139       H  0.99406620  0.25304641  0.42790023     0.11660
H1140       H  0.54863249  0.23223708  0.57778335     0.11660
H1141       H  0.56496554  0.27428559  0.56865080     0.11660
H1142       H  0.51036444  0.29533087  0.41900185     0.11660
C1143       C  0.51661423  0.50072965  0.56592330    -0.14470
C1144       C  0.54026679  0.49671323  0.54490198     0.07680
C1145       C  0.54575927  0.00726429  0.48904281    -0.14470
C1146       C  0.52791566  0.02277392  0.45456912    -0.14470
C1147       C  0.50438351  0.02723579  0.47631140     0.07680
C1148       C  0.49841167  0.01594825  0.53125522    -0.14470
H1149       H  0.51164906  0.49108676  0.60720684     0.11660
H1150       H  0.56391198  0.00330423  0.47231904     0.11660
H1151       H  0.53275415  0.03194883  0.41250890     0.11660
H1152       H  0.98044442  0.51964929  0.54844027     0.11660
Zr1153     Zr  0.51891071  0.65166616  0.58034860     2.17510
O1154       O  0.54226280  0.67492307  0.65458333    -0.52460
O1155       O  0.98881757  0.65227899  0.65893214    -0.75660
O1156       O  0.52023725  0.69714122  0.54977465    -0.82440
O1157       O  0.54605110  0.58538809  0.63843499    -0.84190
O1158       O  0.99876683  0.70665364  0.45849950    -0.79810
O1159       O  0.55452178  0.62680571  0.64239731    -0.91450
O1160       O  0.95299114  0.65677474  0.60136732    -0.77410
O1161       O  0.97894743  0.66034071  0.52262489    -0.86900
O1162       O  0.99510466  0.61466753  0.59355401    -0.86590
O1163       O  0.52651965  0.66043926  0.47528626    -0.73350
O1164       O  0.54256959  0.61900322  0.53842000    -0.85480
Zr1165     Zr  0.99001487  0.59901129  0.38797768     2.26420
Zr1166     Zr  0.98599217  0.66771458  0.41832334     2.06270
Zr1167     Zr  0.51803440  0.58256977  0.55016489     2.10050
Zr1168     Zr  0.95568639  0.62337157  0.53501012     1.78760
O1169       O  0.55236244  0.55164015  0.54573025    -0.94290
O1170       O  0.91577523  0.64646578  0.50468545    -0.42100
O1171       O  0.97938979  0.59191972  0.49127749    -0.78730
O1172       O  0.96342976  0.62956224  0.43191355    -0.97420
O1173       O  0.51213636  0.63676153  0.37570075    -0.90720
O1174       O  0.52902187  0.59019166  0.44912927    -0.93560
C1175       C  0.96457952  0.65306945  0.65287129     1.00190
C1176       C  0.55932820  0.60291332  0.65833947     1.13120
C1177       C  0.01197557  0.71277618  0.50504216     1.03900
O1178       O  0.95109870  0.69902983  0.41393560    -0.95720
O1179       O  0.95305170  0.65984330  0.33948349    -0.91460
O1180       O  0.97166800  0.62611957  0.30350122    -0.84610
C1181       C  0.95291820  0.64173004  0.30450646     1.10540
O1182       O  0.58531185  0.65355918  0.47097133    -0.97690
Zr1183     Zr  0.55104349  0.62794524  0.43539455     1.88940
O1184       O  0.52286837  0.58426425  0.32516491    -0.74340
O1185       O  0.50311905  0.68985716  0.33277821    -0.53600
O1186       O  0.55966665  0.65857981  0.35411223    -0.98280
O1187       O  0.59056926  0.60387352  0.46453936    -0.55500
O1188       O  0.55956594  0.60160033  0.35415619    -0.74860
C1189       C  0.54662888  0.58711863  0.32157708     0.97490
O1190       O  0.95903558  0.57392110  0.33634158    -0.63680
O1191       O  0.00429903  0.55147977  0.62482116    -0.58480
O1192       O  0.98680320  0.55423587  0.39605415    -0.95160
O1193       O  0.48496217  0.56610188  0.48551142    -0.93590
O1194       O  0.94685699  0.59321875  0.61694557    -0.93940
O1195       O  0.91848219  0.59943911  0.51288047    -0.92730
C1196       C  0.48941986  0.54862104  0.45160406     1.16330
H1197       H  0.99339478  0.60900541  0.63475799     0.32270
H1198       H  0.94651915  0.62971231  0.41319046     0.43130
H1199       H  0.53846509  0.57567650  0.43774225     0.36650
H1200       H  0.53662586  0.67497013  0.46984552     0.33130
H1201       H  0.90790119  0.64883215  0.54257998     0.24920
H1202       H  0.99142621  0.70480294  0.32256594     0.30860
H1203       H  0.57340923  0.65045969  0.33396886     0.36770
H1204       H  0.93005057  0.59879668  0.62840314     0.31230
H1205       H  0.52004075  0.54314854  0.64471528     0.30100
H1206       H  0.56758925  0.56166025  0.54413669     0.31780
H1207       H  0.60110299  0.60703554  0.43050483     0.30750
H1208       H  0.92272292  0.58973073  0.47870159     0.34750
H1209       H  0.94324550  0.57637547  0.35610441     0.27480
H1210       H  0.53052137  0.68872047  0.66411751     0.31720
H1211       H  0.59710179  0.65440433  0.43892877     0.34570
H1212       H  0.99740316  0.56153960  0.65574554     0.27180
H1213       H  0.95576290  0.58182205  0.29503535     0.40050
H1214       H  0.94707704  0.69994216  0.45609736     0.30100
H1215       H  0.92055955  0.66358913  0.49067661     0.37720
H1216       H  0.58627724  0.58596268  0.46294176     0.29570
H1217       H  0.51883710  0.69688659  0.34960963     0.29630
H1218       H  0.55549158  0.68344915  0.63304517     0.29900
Zr1219     Zr  0.57102172  0.92615107  0.60576469     2.17510
O1220       O  0.60955956  0.94958720  0.61725860    -0.52460
O1221       O  0.53819257  0.93900632  0.66936683    -0.75660
O1222       O  0.56358510  0.97038680  0.62146588    -0.82440
O1223       O  0.61146776  0.87136688  0.65242247    -0.84190
O1224       O  0.55452775  0.95596427  0.53705425    -0.79810
O1225       O  0.58534708  0.89794352  0.69033610    -0.91450
O1226       O  0.50247660  0.92043667  0.63674882    -0.77410
O1227       O  0.53175764  0.93175051  0.54358003    -0.86900
O1228       O  0.55035747  0.88704390  0.61631016    -0.86590
O1229       O  0.58113313  0.93641608  0.50125868    -0.73350
O1230       O  0.59912939  0.89591925  0.56700770    -0.85480
Zr1231     Zr  0.54571655  0.87450059  0.41046950     2.26420
Zr1232     Zr  0.54126966  0.94202640  0.44268543     2.06270
Zr1233     Zr  0.57847543  0.85733762  0.57692083     2.10050
Zr1234     Zr  0.51150613  0.89342584  0.55666424     1.78760
O1235       O  0.61337294  0.82625837  0.57758059    -0.94290
O1236       O  0.97170156  0.91661268  0.52515190    -0.42100
O1237       O  0.53917379  0.86423612  0.51532672    -0.78730
O1238       O  0.51848434  0.90402824  0.45367207    -0.97420
O1239       O  0.56839537  0.91206989  0.40246655    -0.90720
O1240       O  0.58509270  0.86623543  0.47241382    -0.93560
C1241       C  0.51448062  0.93525473  0.67047649     1.00190
C1242       C  0.60732503  0.88819076  0.68969777     1.13120
C1243       C  0.55398634  0.97452726  0.56838194     1.03900
O1244       O  0.50741558  0.97454360  0.43342108    -0.95720
O1245       O  0.51156409  0.93863297  0.35854637    -0.91460
O1246       O  0.51085128  0.89730849  0.33917754    -0.84610
C1247       C  0.50251608  0.92087547  0.32955424     1.10540
O1248       O  0.64300432  0.92845937  0.49866108    -0.97690
Zr1249     Zr  0.60727393  0.90427085  0.46474612     1.88940
O1250       O  0.57633421  0.88260450  0.33365479    -0.74340
O1251       O  0.56208660  0.97188338  0.37708559    -0.53600
O1252       O  0.62072272  0.93623785  0.39200602    -0.98280
O1253       O  0.64444436  0.87732784  0.49964703    -0.55500
O1254       O  0.61360110  0.87718315  0.38597432    -0.74860
C1255       C  0.60061288  0.88243965  0.33682859     0.97490
O1256       O  0.53208118  0.84498227  0.33768548    -0.63680
O1257       O  0.56456377  0.83401794  0.66510428    -0.58480
O1258       O  0.54111836  0.82973884  0.44411125    -0.95160
O1259       O  0.56187300  0.81997442  0.53638707    -0.93590
O1260       O  0.50154739  0.86202459  0.63491972    -0.93940
O1261       O  0.97919698  0.86543763  0.52344940    -0.92730
C1262       C  0.54826552  0.81422740  0.49002722     1.16330
H1263       H  0.54673172  0.88204035  0.65690446     0.32270
H1264       H  0.50143085  0.90557978  0.43578643     0.43130
H1265       H  0.59428216  0.85181843  0.45955610     0.36650
H1266       H  0.59121238  0.95116564  0.49621464     0.33130
H1267       H  0.96158051  0.91478738  0.56030330     0.24920
H1268       H  0.55136806  0.98765474  0.37302677     0.30860
H1269       H  0.63633850  0.92885637  0.37776484     0.36770
H1270       H  0.98755332  0.87024132  0.65433912     0.31230
H1271       H  0.56903193  0.81607829  0.65992141     0.30100
H1272       H  0.61424500  0.81727555  0.61798772     0.31780
H1273       H  0.65430452  0.87627616  0.46418208     0.30750
H1274       H  0.98485899  0.85947123  0.48568567     0.34750
H1275       H  0.51347386  0.84538165  0.33763571     0.27480
H1276       H  0.60794709  0.96410062  0.58672357     0.31720
H1277       H  0.65753155  0.92284129  0.47715910     0.34570
H1278       H  0.57632729  0.83840194  0.69868618     0.27180
H1279       H  0.03521317  0.85336867  0.29836450     0.40050
H1280       H  0.50734019  0.98279958  0.39237426     0.30100
H1281       H  0.97596202  0.93462153  0.52226673     0.37720
H1282       H  0.63805695  0.86020534  0.50658872     0.29570
H1283       H  0.57769686  0.97603676  0.40040352     0.29630
H1284       H  0.62290463  0.93833030  0.60378397     0.29900
Zr1285     Zr  0.67193916  0.99995122  0.90935782     2.17510
O1286       O  0.69596975  0.52198363  0.83490874    -0.52460
O1287       O  0.67299235  0.96904285  0.83213822    -0.75660
O1288       O  0.71700255  0.00209933  0.94245855    -0.82440
O1289       O  0.60660945  0.52592432  0.84263368    -0.84190
O1290       O  0.72620728  0.98198080  0.03534366    -0.79810
O1291       O  0.64785681  0.53528548  0.84489681    -0.91450
O1292       O  0.67656393  0.93292096  0.88927525    -0.77410
O1293       O  0.68052211  0.96065978  0.97013105    -0.86900
O1294       O  0.63528341  0.97572328  0.89530682    -0.86590
O1295       O  0.67943117  0.50919178  0.01393633    -0.73350
O1296       O  0.63842175  0.52426547  0.94593160    -0.85480
Zr1297     Zr  0.61720433  0.97284356  0.09597384     2.26420
Zr1298     Zr  0.68719112  0.96925889  0.07400948     2.06270
Zr1299     Zr  0.60222302  0.49941366  0.93257378     2.10050
Zr1300     Zr  0.64387343  0.93692834  0.95678420     1.78760
O1301       O  0.57104042  0.53399650  0.93322182    -0.94290
O1302       O  0.66711651  0.89740683  0.99076214    -0.42100
O1303       O  0.61083374  0.96131731  0.99328727    -0.78730
O1304       O  0.64974155  0.94603676  0.05964553    -0.97420
O1305       O  0.65452730  0.99550840  0.10918742    -0.90720
O1306       O  0.60868588  0.51131657  0.03255652    -0.93560
C1307       C  0.67329155  0.94472362  0.83789742     1.00190
C1308       C  0.62431905  0.53945797  0.82515193     1.13120
C1309       C  0.73240576  0.99464726  0.98823101     1.03900
O1310       O  0.71528594  0.93170749  0.07905991    -0.95720
O1311       O  0.67769771  0.94191419  0.16347024    -0.91460
O1312       O  0.64819771  0.96975428  0.17900696    -0.84610
C1313       C  0.65873996  0.94814735  0.19199946     1.10540
O1314       O  0.67072922  0.56900517  0.01513975    -0.97690
Zr1315     Zr  0.64571754  0.53395326  0.04865765     1.88940
O1316       O  0.59975562  0.00490708  0.15708872    -0.74340
O1317       O  0.71096462  0.98728211  0.15623724    -0.53600
O1318       O  0.67467738  0.54504171  0.13100492    -0.98280
O1319       O  0.62043226  0.57225974  0.01405870    -0.55500
O1320       O  0.61842289  0.54114011  0.12940230    -0.74860
C1321       C  0.60322865  0.52858943  0.16085542     0.97490
O1322       O  0.60125659  0.93206449  0.13001653    -0.63680
O1323       O  0.57189375  0.98333575  0.85965868    -0.58480
O1324       O  0.57262099  0.97206426  0.09448374    -0.95160
O1325       O  0.58643657  0.96965296  0.00677161    -0.93590
O1326       O  0.61533758  0.92588589  0.87368853    -0.93940
O1327       O  0.61948196  0.90032943  0.98171504    -0.92730
C1328       C  0.56835256  0.97479398  0.03832589     1.16330
H1329       H  0.63009346  0.97326864  0.85415408     0.32270
H1330       H  0.65121755  0.92975742  0.08202608     0.43130
H1331       H  0.59405227  0.52087747  0.04269816     0.36650
H1332       H  0.69366426  0.51968781  0.01938169     0.33130
H1333       H  0.66848914  0.88833512  0.95404940     0.24920
H1334       H  0.72713617  0.97720589  0.16158471     0.30860
H1335       H  0.66559017  0.55865199  0.14969389     0.36770
H1336       H  0.62193338  0.90918791  0.86341580     0.31230
H1337       H  0.56431279  0.99844553  0.83536424     0.30100
H1338       H  0.56476678  0.53803046  0.89079111     0.31780
H1339       H  0.61938841  0.58187693  0.05001938     0.30750
H1340       H  0.60508565  0.90722261  0.00180503     0.34750
H1341       H  0.58922513  0.92741789  0.09723770     0.27480
H1342       H  0.70999141  0.51005741  0.82771294     0.31720
H1343       H  0.66863405  0.58203997  0.04395318     0.34810
H1344       H  0.58229790  0.97463003  0.83202029     0.27180
H1345       H  0.61547666  0.91956612  0.12930380     0.40050
H1346       H  0.71998026  0.93044050  0.03750179     0.30100
H1347       H  0.68447799  0.90238934  0.00162010     0.37720
H1348       H  0.60317164  0.56648195  0.00559672     0.29570
H1349       H  0.71543542  0.00412056  0.13938798     0.29630
H1350       H  0.70406549  0.53579398  0.85543859     0.29900
Zr1351     Zr  0.94422653  0.55186750  0.88019818     2.17510
O1352       O  0.96736172  0.59066448  0.86813289    -0.52460
O1353       O  0.95675763  0.51845974  0.81829986    -0.75660
O1354       O  0.98787450  0.54446265  0.86210695    -0.82440
O1355       O  0.88962550  0.59269392  0.83438064    -0.84190
O1356       O  0.97417743  0.53443443  0.94710127    -0.79810
O1357       O  0.91520500  0.56565618  0.79667162    -0.91450
O1358       O  0.93996107  0.98267809  0.85642009    -0.77410
O1359       O  0.95014739  0.51293164  0.94387459    -0.86900
O1360       O  0.90512328  0.53123622  0.87185204    -0.86590
O1361       O  0.95593487  0.56256180  0.98355537    -0.73350
O1362       O  0.91488918  0.58050350  0.91912462    -0.85480
Zr1363     Zr  0.89396327  0.52970019  0.07949213     2.26420
Zr1364     Zr  0.96117720  0.52316802  0.04391251     2.06270
Zr1365     Zr  0.87613150  0.56009847  0.91091833     2.10050
Zr1366     Zr  0.91175007  0.99300944  0.93377735     1.78760
O1367       O  0.84549353  0.59545755  0.90937199    -0.94290
O1368       O  0.93316711  0.95261850  0.96876926    -0.42100
O1369       O  0.88322136  0.52153637  0.97525648    -0.78730
O1370       O  0.92255237  0.50130783  0.03594804    -0.97420
O1371       O  0.93223795  0.55118925  0.08535596    -0.90720
O1372       O  0.88582258  0.56796376  0.01394974    -0.93560
C1373       C  0.95412281  0.49444398  0.82070480     1.00190
C1374       C  0.90608099  0.58794292  0.79694276     1.13120
C1375       C  0.49254208  0.53491236  0.91524671     1.03900
O1376       O  0.99479629  0.99094151  0.05617950    -0.95720
O1377       O  0.95795821  0.49263703  0.12635086    -0.91460
O1378       O  0.91753684  0.49544388  0.15194741    -0.84610
C1379       C  0.94052326  0.48536338  0.15863716     1.10540
O1380       O  0.95210429  0.62388024  0.99837716    -0.97690
Zr1381     Zr  0.92460471  0.58929602  0.02056844     1.88940
O1382       O  0.89774319  0.56442479  0.15053724    -0.74340
O1383       O  0.99160320  0.54385539  0.10845948    -0.53600
O1384       O  0.95260735  0.59773801  0.10729187    -0.98280
O1385       O  0.90397984  0.62889481  0.97659291    -0.55500
O1386       O  0.89370068  0.59876082  0.08714553    -0.74860
C1387       C  0.89672391  0.58878572  0.14002494     0.97490
O1388       O  0.86573775  0.01544810  0.15453730    -0.63680
O1389       O  0.85229692  0.54524850  0.82433551    -0.58480
O1390       O  0.84934079  0.52423997  0.04669245    -0.95160
O1391       O  0.83909733  0.54436725  0.95395579    -0.93590
O1392       O  0.88087781  0.98270196  0.85456820    -0.93940
O1393       O  0.88268752  0.96155698  0.96653922    -0.92730
C1394       C  0.83361638  0.53111657  0.00100446     1.16330
H1395       H  0.89985143  0.52715824  0.83168173     0.32270
H1396       H  0.92358788  0.98445770  0.05454847     0.43130
H1397       H  0.87073502  0.57682730  0.02414669     0.36650
H1398       H  0.97099520  0.57220629  0.98737789     0.33130
H1399       H  0.93134516  0.94213187  0.93412635     0.24920
H1400       H  0.00663806  0.53212275  0.11468506     0.30860
H1401       H  0.96987601  0.59492695  0.09499114     0.36770
H1402       H  0.88923004  0.96888249  0.83500860     0.31230
H1403       H  0.83439780  0.54871982  0.83127665     0.30100
H1404       H  0.83473797  0.59453615  0.87168258     0.31780
H1405       H  0.90010719  0.63865226  0.01093934     0.30750
H1406       H  0.87703256  0.96739643  0.00443213     0.34750
H1407       H  0.86627619  0.99679495  0.15423368     0.27480
H1408       H  0.98266779  0.58875119  0.89627022     0.31720
H1409       H  0.94913133  0.63635975  0.02807756     0.34570
H1410       H  0.85549450  0.55744280  0.79053774     0.27180
H1411       H  0.87460738  0.01870097  0.19343190     0.40050
H1412       H  0.98912361  0.97808715  0.02895926     0.30100
H1413       H  0.95127808  0.95627024  0.97259649     0.37720
H1414       H  0.88733086  0.62403647  0.95955399     0.29570
H1415       H  0.99695538  0.55855499  0.08372595     0.29630
H1416       H  0.95672322  0.60381887  0.88440779     0.29900
C1417       C  0.77694190  0.99281075  0.03478514    -0.14470
C1418       C  0.75872667  0.00278786  0.98939452     0.07680
C1419       C  0.76529101  0.52250535  0.94921919    -0.14470
C1420       C  0.78931588  0.53207910  0.95432861    -0.14470
C1421       C  0.80755003  0.52219182  0.99974149     0.07680
C1422       C  0.80109931  0.50244245  0.03998903    -0.14470
H1423       H  0.77251531  0.97769852  0.06682306     0.11660
H1424       H  0.75166937  0.53091184  0.91438057     0.11660
H1425       H  0.79359051  0.54728314  0.92236282     0.11660
H1426       H  0.81472352  0.99406152  0.07468482     0.11660
C1427       C  0.52601755  0.53002614  0.99329451    -0.14470
C1428       C  0.51562981  0.52281032  0.93843991     0.07680
C1429       C  0.52102544  0.49899564  0.91923299    -0.14470
C1430       C  0.53683100  0.98211191  0.95560728    -0.14470
C1431       C  0.54723573  0.98933457  0.01035640     0.07680
C1432       C  0.54189184  0.51314244  0.02960548    -0.14470
H1433       H  0.52126717  0.54839870  0.00821703     0.11660
H1434       H  0.01168391  0.99315581  0.87865049     0.11660
H1435       H  0.54135018  0.96363498  0.94066629     0.11660
H1436       H  0.55056146  0.51891635  0.07140162     0.11660
C1437       C  0.63798474  0.88780885  0.27516238    -0.14470
C1438       C  0.61366745  0.89582221  0.28907801     0.07680
C1439       C  0.60512927  0.92069811  0.27196348    -0.14470
C1440       C  0.62099789  0.93772668  0.24589949    -0.14470
C1441       C  0.64498961  0.92985735  0.22961888     0.07680
C1442       C  0.65321606  0.90447859  0.24373855    -0.14470
H1443       H  0.64536640  0.86889421  0.28990391     0.11660
H1444       H  0.58698352  0.92774855  0.28409692     0.11660
H1445       H  0.61376586  0.95705828  0.23608539     0.11660
H1446       H  0.67146198  0.89773645  0.23172852     0.11660
C1447       C  0.62217928  0.92712564  0.73154625    -0.14470
C1448       C  0.62753880  0.90153902  0.72291480     0.07680
C1449       C  0.65098898  0.89062302  0.74692020    -0.14470
C1450       C  0.66757915  0.90495194  0.78197469    -0.14470
C1451       C  0.66192436  0.93088331  0.78817734     0.07680
C1452       C  0.63985255  0.94196345  0.75835950    -0.14470
H1453       H  0.60382460  0.93606468  0.71795951     0.11660
H1454       H  0.65564554  0.87087999  0.74220544     0.11660
H1455       H  0.68427720  0.89567656  0.80575000     0.11660
H1456       H  0.63460406  0.96165096  0.76188302     0.11660
C1457       C  0.96236485  0.94736417  0.30526997    -0.14470
C1458       C  0.98046404  0.92995847  0.28617126     0.07680
C1459       C  0.98081600  0.92783411  0.22437018    -0.14470
C1460       C  0.96528975  0.94419729  0.18325746    -0.14470
C1461       C  0.94892971  0.96325382  0.20237211     0.07680
C1462       C  0.94684012  0.96374125  0.26415230    -0.14470
H1463       H  0.96180472  0.94986681  0.35263646     0.11660
H1464       H  0.49454158  0.91502720  0.20785143     0.11660
H1465       H  0.96765555  0.94338045  0.13590602     0.11660
H1466       H  0.93505302  0.97829318  0.28088667     0.11660
C1467       C  0.97699263  0.94092220  0.73098397    -0.14470
C1468       C  0.49959234  0.94969352  0.71144687     0.07680
C1469       C  0.00720020  0.97365648  0.72797773    -0.14470
C1470       C  0.99194347  0.98843412  0.76140067    -0.14470
C1471       C  0.96934551  0.97938073  0.78165824     0.07680
C1472       C  0.96221487  0.95529283  0.76648838    -0.14470
H1473       H  0.47051271  0.92251329  0.71896454     0.11660
H1474       H  0.02454143  0.98119884  0.71368176     0.11660
H1475       H  0.99808824  0.50678339  0.77235066     0.11660
H1476       H  0.94500799  0.94767896  0.78142029     0.11660
C1477       C  0.55129723  0.54961556  0.25840703    -0.14470
C1478       C  0.56042519  0.57227997  0.27886751     0.07680
C1479       C  0.58383220  0.57999723  0.26076250    -0.14470
C1480       C  0.59756799  0.56574367  0.22306262    -0.14470
C1481       C  0.58865575  0.54297665  0.20298166     0.07680
C1482       C  0.56532330  0.53505092  0.22136524    -0.14470
H1483       H  0.53350139  0.54289574  0.27189319     0.11660
H1484       H  0.59157252  0.59723301  0.27560969     0.11660
H1485       H  0.61539240  0.57253138  0.20992813     0.11660
H1486       H  0.55771732  0.51778364  0.20635890     0.11660
C1487       C  0.58378094  0.59694459  0.76081694    -0.14470
C1488       C  0.58195994  0.59333580  0.69924890     0.07680
C1489       C  0.59841224  0.57472339  0.67931551    -0.14470
C1490       C  0.61484642  0.55905146  0.71974455    -0.14470
C1491       C  0.61543117  0.56143946  0.78169784     0.07680
C1492       C  0.60018159  0.58112387  0.80140727    -0.14470
H1493       H  0.57094963  0.61038764  0.77822553     0.11660
H1494       H  0.59714074  0.57095491  0.63243991     0.11660
H1495       H  0.62541310  0.54359598  0.70297504     0.11660
H1496       H  0.59938858  0.58289246  0.84901385     0.11660
C1497       C  0.91575584  0.61587805  0.28860489    -0.14470
C1498       C  0.93000506  0.63609819  0.26794563     0.07680
C1499       C  0.92790567  0.64374188  0.20707076    -0.14470
C1500       C  0.91426983  0.62964066  0.16689111    -0.14470
C1501       C  0.90377246  0.60661062  0.18624796     0.07680
C1502       C  0.90352508  0.60052886  0.24797944    -0.14470
H1503       H  0.91650679  0.61028185  0.33605532     0.11660
H1504       H  0.93877714  0.65909871  0.18995324     0.11660
H1505       H  0.91452299  0.63543392  0.11970901     0.11660
H1506       H  0.89516334  0.58340791  0.26460333     0.11660
C1507       C  0.96069761  0.61882237  0.72955035    -0.14470
C1508       C  0.95046262  0.64162381  0.70159874     0.07680
C1509       C  0.92484376  0.64819598  0.70817472    -0.14470
C1510       C  0.90997469  0.63180456  0.74198025    -0.14470
C1511       C  0.91997952  0.60771957  0.76411576     0.07680
C1512       C  0.94523410  0.60143317  0.75490165    -0.14470
H1513       H  0.98012354  0.61290763  0.72562708     0.11660
H1514       H  0.91623322  0.66551439  0.68576026     0.11660
H1515       H  0.89051332  0.63719839  0.74734537     0.11660
H1516       H  0.95351515  0.58268186  0.76767239     0.11660
C1517       C  0.50950669  0.75748120  0.45912494    -0.14470
C1518       C  0.51993261  0.73923944  0.50397287     0.07680
C1519       C  0.53993787  0.74584605  0.54329301    -0.14470
C1520       C  0.54948225  0.76993533  0.53750777    -0.14470
C1521       C  0.53923378  0.78812630  0.49236685     0.07680
C1522       C  0.51905051  0.78163387  0.45337402    -0.14470
H1523       H  0.99406950  0.75302900  0.42790503     0.11660
H1524       H  0.54868004  0.73221550  0.57770562     0.11660
H1525       H  0.56499342  0.77427327  0.56859027     0.11660
H1526       H  0.51043463  0.79528132  0.41883433     0.11660
C1527       C  0.51634722  0.00071894  0.56584204    -0.14470
C1528       C  0.54002171  0.99667796  0.54495305     0.07680
C1529       C  0.54594669  0.50731541  0.48895839    -0.14470
C1530       C  0.52805752  0.52280386  0.45457046    -0.14470
C1531       C  0.50453986  0.52722498  0.47643081     0.07680
C1532       C  0.49863309  0.51592989  0.53141719    -0.14470
H1533       H  0.51133694  0.99108800  0.60710104     0.11660
H1534       H  0.56408300  0.50337434  0.47213258     0.11660
H1535       H  0.53284167  0.53197741  0.41246093     0.11660
H1536       H  0.98044688  0.01971126  0.54831441     0.11660
loop_ 
_geom_bond_atom_site_label_1 
_geom_bond_atom_site_label_2 
_geom_bond_distance 
_geom_bond_site_symmetry_2 
_ccdc_geom_bond_type 
Zr1           O2   2.441       .  S
Zr1           O4   2.467       .  S
Zr1           O7   2.531       .  S
Zr1         O771   2.473   1_455  S
Zr1          O11   2.437       .  S
Zr1          O12   2.394       .  S
Zr1         O777   2.414   1_455  S
Zr1         O778   2.393   1_455  S
O2           H58   0.990       .  S
O2           H66   0.990       .  S
O3         Zr769   2.473       .  S
O3           C23   1.287       .  A
O4          C793   1.292       .  A
O5          Zr15   2.405       .  S
O5           C24   1.277       .  A
O6          Zr14   2.418       .  S
O6           C25   1.284       .  A
O7           C24   1.303       .  A
O8          Zr16   2.406       .  S
O8           C23   1.266       .  A
O9          Zr14   2.405       .  S
O9          Zr16   2.374       .  S
O9         Zr769   2.414       .  S
O10         Zr16   2.400       .  S
O10        Zr769   2.393       .  S
O10        Zr783   2.366       .  S
O10          H45   0.963       .  S
O11         Zr31   2.390       .  S
O11        Zr782   2.424   1_455  S
O11          H48   0.964       .  S
O12         Zr15   2.388       .  S
O12         Zr31   2.406       .  S
Zr13         O38   2.440       .  S
Zr13         O40   2.386       .  S
Zr13         O28   2.413       .  S
Zr13        O800   2.467       .  S
Zr13         O19   2.434       .  S
Zr13         O20   2.424       .  S
Zr13        O789   2.375       .  S
Zr13        O790   2.410       .  S
Zr14         O26   2.435       .  S
Zr14        O801   2.433       .  S
Zr14         O27   2.465       .  S
Zr14         O20   2.409       .  S
Zr14        O779   2.424       .  S
Zr14        O789   2.409       .  S
Zr15         O17   2.421       .  S
Zr15        O807   2.438       .  S
Zr15         O41   2.427   1_455  S
Zr15         O22   2.395       .  S
Zr15        O778   2.366   1_455  S
Zr15        O787   2.373   1_455  S
Zr16         O42   2.434       .  S
Zr16         O43   2.436       .  S
Zr16         O18   2.436       .  S
Zr16         O19   2.368       .  S
Zr16         O20   2.383       .  S
O17          H54   0.989       .  S
O18          H49   0.991       .  S
O18          H63   0.990       .  S
O19        Zr783   2.373       .  S
O20          H46   0.964       .  S
O21         Zr31   2.390       .  S
O21        Zr781   2.375   1_455  S
O21        Zr782   2.409   1_455  S
O22         Zr31   2.376       .  S
O22        Zr781   2.410   1_455  S
O22          H47   0.964       .  S
C23         C356   1.482       .  S
C24         C336   1.506       .  S
C25         O772   1.292       .  A
C25        C1134   1.483       .  S
O26          H62   0.990       .  S
O27          C29   1.285       .  A
O28          C29   1.275       .  A
C29         C346   1.471       .  S
O30         Zr31   2.440       .  S
O30          H59   0.990       .  S
Zr31         O34   2.437       .  S
Zr31         O35   2.438       .  S
Zr31         O36   2.437       .  S
O32        Zr781   2.467   1_455  S
O32          C37   1.289       .  A
O33        Zr782   2.433   1_455  S
O33          H65   0.990       .  S
O33         H818   0.990   1_455  S
O34          H51   0.990       .  S
O35          H55   0.990       .  S
O35          H64   0.990       .  S
O36          C37   1.284       .  A
C37         C326   1.501       .  S
O38          H57   0.989       .  S
O38          H61   0.989       .  S
O39        Zr783   2.438       .  S
O39          H60   0.990       .  S
O39         H821   0.990       .  S
O40         C812   1.257       .  A
O41          C44   1.269       .  A
O42          H52   0.990       .  S
O43          H56   0.990       .  S
C44         O808   1.257       .  A
C44         C379   1.419   1_655  S
H50         O801   0.990       .  S
H53         O807   0.990       .  S
Zr67         O68   2.450       .  S
Zr67         O69   2.448       .  S
Zr67         O70   2.422       .  S
Zr67         O73   2.387       .  S
Zr67         O75   2.419       .  S
Zr67         O76   2.394       .  S
Zr67         O77   2.473       .  S
Zr67         O78   2.406       .  S
O68         H124   0.989       .  S
O68         H132   0.990       .  S
O69          C89   1.288       .  A
O70          C91   1.260       .  A
O71         Zr81   2.520       .  S
O71          C90   1.292       .  A
O72         Zr80   2.362       .  S
O72          C91   1.253       .  A
O73          C90   1.263       .  A
O74         Zr82   2.444       .  S
O74          C89   1.286       .  A
O75         Zr80   2.387       .  S
O75         Zr82   2.352       .  S
O76         Zr81   2.394       .  S
O76         Zr82   2.375       .  S
O76         H111   0.966       .  S
O77         Zr80   2.406       .  S
O77         Zr97   2.391       .  S
O77         H114   0.972       .  S
O78         Zr81   2.368       .  S
O78         Zr97   2.381       .  S
Zr79        O104   2.437       .  S
Zr79         O98   2.489       .  S
Zr79        O106   2.468       .  S
Zr79         O94   2.560       .  S
Zr79         O85   2.431       .  S
Zr79         O86   2.400       .  S
Zr79         O87   2.376       .  S
Zr79         O88   2.432       .  S
Zr80         O99   2.441       .  S
Zr80         O92   2.433       .  S
Zr80         O93   2.391       .  S
Zr80         O86   2.403       .  S
Zr80         O87   2.379       .  S
Zr81         O83   2.434       .  S
Zr81        O105   2.437       .  S
Zr81        O107   2.415       .  S
Zr81         O85   2.418       .  S
Zr81         O88   2.414       .  S
Zr82        O108   2.435       .  S
Zr82        O877   2.435   1_455  S
Zr82        O852   2.437   1_455  S
Zr82         O85   2.382       .  S
Zr82         O86   2.399       .  S
O83         H120   0.990       .  S
O84        Zr850   2.437       .  S
O84         H115   0.990       .  S
O84         H129   0.990       .  S
O86         H112   0.962       .  S
O87         Zr97   2.412       .  S
O88         Zr97   2.383       .  S
O88         H113   0.966       .  S
C89         C316   1.493   1_455  S
C90         C296   1.495       .  S
C91         C376   1.411       .  S
O92         H128   0.990       .  S
O93          C95   1.274       .  A
O94          C95   1.308       .  A
C95        C1074   1.507   1_455  S
O96         Zr97   2.443       .  S
O96         H125   0.990       .  S
Zr97        O100   2.435       .  S
Zr97        O101   2.440       .  S
Zr97        O102   2.395       .  S
O98         C103   1.289       .  A
O99         H116   0.989       .  S
O99         H131   0.989       .  S
O100        H117   0.990       .  S
O101        H121   0.990       .  S
O101        H130   0.989       .  S
O102        C103   1.263       .  A
C103        C286   1.476       .  S
O104        H123   0.990       .  S
O104        H895   0.990       .  S
O105        H119   0.990       .  S
O105        H126   0.990       .  S
O106        C110   1.294       .  A
O107        C110   1.284       .  A
O108        H886   0.990   1_455  S
O109       Zr850   2.435       .  S
O109        H122   0.990       .  S
C110        C369   1.484       .  S
H118        O876   0.990       .  S
H127        O872   0.990       .  S
Zr133       O518   2.441       .  S
Zr133       O135   2.475       .  S
Zr133       O136   2.467       .  S
Zr133       O523   2.528       .  S
Zr133       O141   2.415       .  S
Zr133       O142   2.395       .  S
Zr133       O527   2.439   1_556  S
Zr133       O528   2.395       .  S
O134       Zr517   2.441   1_545  S
O134        H190   0.990       .  S
O134        H198   0.990       .  S
O135        C155   1.288       .  A
O136        C157   1.292       .  A
O137       Zr147   2.406   1_545  S
O137        C156   1.277       .  A
O138       Zr146   2.416       .  S
O138        C157   1.283   1_554  A
O139       Zr517   2.529   1_545  S
O139        C156   1.302       .  A
O140       Zr148   2.407       .  S
O140        C155   1.268       .  A
O141       Zr146   2.411   1_556  S
O141       Zr148   2.378       .  S
O142       Zr148   2.401       .  S
O142       Zr531   2.368       .  S
O142        H177   0.963       .  S
O143       Zr163   2.395       .  S
O143       Zr517   2.439   1_544  S
O143       Zr530   2.431   1_545  S
O143        H180   0.964       .  S
O144       Zr147   2.392   1_545  S
O144       Zr163   2.405   1_556  S
O144       Zr517   2.395   1_545  S
Zr145       O170   2.449       .  S
Zr145       O164   2.461       .  S
Zr145       O172   2.374       .  S
Zr145       O160   2.385       .  S
Zr145       O151   2.430   1_554  S
Zr145       O152   2.426       .  S
Zr145       O153   2.376       .  S
Zr145       O538   2.410       .  S
Zr146       O165   2.434       .  S
Zr146       O158   2.435       .  S
Zr146       O159   2.487       .  S
Zr146       O152   2.401       .  S
Zr146       O153   2.403       .  S
Zr146       O527   2.431       .  S
Zr147       O149   2.428   1_565  S
Zr147       O555   2.438       .  S
Zr147       O557   2.432   1_556  S
Zr147       O154   2.379   1_566  S
Zr147       O526   2.369       .  S
Zr147       O535   2.365       .  S
Zr148       O174   2.435       .  S
Zr148       O175   2.436       .  S
Zr148       O150   2.435       .  S
Zr148       O151   2.375       .  S
Zr148       O152   2.393   1_556  S
O149        H186   0.990       .  S
O150        H181   0.991       .  S
O150        H195   0.990   1_556  S
O151       Zr531   2.366       .  S
O152        H178   0.965       .  S
O153       Zr547   2.377       .  S
O154       Zr163   2.369       .  S
O154       Zr529   2.410   1_545  S
O154        H179   0.964       .  S
C155        C299   1.485       .  S
C156        C339   1.502       .  S
C157        C266   1.483       .  S
O158        H194   0.990       .  S
O159        C161   1.282       .  A
O160        C161   1.261       .  A
C161        C289   1.491       .  S
O162       Zr163   2.440       .  S
O162        H191   0.990       .  S
Zr163       O166   2.437       .  S
Zr163       O167   2.438       .  S
Zr163       O168   2.450       .  S
Zr163       O537   2.377   1_545  S
O164        C553   1.291       .  A
O165        H182   0.990       .  S
O165        H197   0.990       .  S
O166        H183   0.990       .  S
O167        H187   0.990       .  S
O167        H196   0.990       .  S
O168        C169   1.288       .  A
C169        O548   1.291       .  A
C169        C329   1.500       .  S
O170        H189   0.990       .  S
O170        H193   0.989       .  S
O171       Zr531   2.438       .  S
O171        H185   0.990       .  S
O171        H192   0.990       .  S
O172        C176   1.260       .  A
O173       Zr531   2.432   1_554  S
O173        C176   1.271       .  A
O174        H184   0.990       .  S
O175        H188   0.990   1_556  S
C176        C279   1.417       .  S
Zr199       O200   2.451       .  S
Zr199       O201   2.436       .  S
Zr199       O202   2.413       .  S
Zr199       O205   2.388       .  S
Zr199       O207   2.421       .  S
Zr199       O208   2.393       .  S
Zr199       O209   2.468       .  S
Zr199       O210   2.394       .  S
O200        H256   0.989       .  S
O200        H264   0.990       .  S
O201        C221   1.286   1_545  A
O202        C991   1.261       .  A
O203       Zr213   2.513       .  S
O203        C222   1.290       .  A
O204       Zr212   2.373   1_556  S
O204        C991   1.258       .  A
O205        C222   1.262       .  A
O206       Zr214   2.461       .  S
O206        C605   1.290       .  A
O207       Zr212   2.384   1_556  S
O207       Zr598   2.349   1_545  S
O208       Zr213   2.391       .  S
O208       Zr598   2.373   1_545  S
O208        H243   0.966       .  S
O209       Zr212   2.402   1_556  S
O209       Zr229   2.385   1_556  S
O209        H246   0.971       .  S
O210       Zr213   2.371       .  S
O210       Zr229   2.380   1_556  S
Zr211       O620   2.437       .  S
Zr211       O230   2.529       .  S
Zr211       O238   2.469       .  S
Zr211       O226   2.569   1_545  S
Zr211       O217   2.440   1_554  S
Zr211       O218   2.410       .  S
Zr211       O219   2.376       .  S
Zr211       O220   2.423       .  S
Zr212       O231   2.439       .  S
Zr212       O608   2.428   1_545  S
Zr212       O225   2.389   1_545  S
Zr212       O218   2.404       .  S
Zr212       O219   2.387       .  S
Zr213       O215   2.435       .  S
Zr213       O237   2.437       .  S
Zr213       O239   2.414       .  S
Zr213       O217   2.417       .  S
Zr213       O220   2.401   1_556  S
Zr214       O240   2.435       .  S
Zr214       O241   2.435       .  S
Zr214       O216   2.437       .  S
Zr214       O591   2.349       .  S
Zr214       O592   2.373       .  S
Zr214       O601   2.392       .  S
Zr214       O602   2.402   1_556  S
O215        H252   0.990       .  S
O216        H247   0.990       .  S
O216        H261   0.990       .  S
O217       Zr598   2.391   1_545  S
O218       Zr598   2.402   1_544  S
O218        H628   0.962   1_545  S
O219       Zr229   2.405       .  S
O220       Zr229   2.396       .  S
O220        H245   0.966       .  S
C221        O590   1.290       .  A
C221        C703   1.494       .  S
C222        C359   1.492       .  S
C223        O970   1.261       .  A
C223        O972   1.257       .  A
C223        C276   1.409   1_655  S
O224       Zr596   2.428       .  S
O224        H260   0.990       .  S
O225        C227   1.276       .  A
O226        C227   1.310       .  A
C227        C693   1.509       .  S
O228       Zr229   2.441   1_556  S
O228        H257   0.991   1_556  S
Zr229       O232   2.440       .  S
Zr229       O233   2.439   1_554  S
Zr229       O234   2.370       .  S
O230        C235   1.296       .  A
O231        H248   0.990       .  S
O231        H263   0.988       .  S
O232        H249   0.989       .  S
O233        H253   0.990   1_556  S
O233        H262   0.990       .  S
O234        C235   1.259       .  A
C235        C349   1.492       .  S
O236       Zr595   2.437       .  S
O236        H255   0.990       .  S
O236        H259   0.990       .  S
O237        H251   0.990       .  S
O237        H258   0.990       .  S
O238        C242   1.294       .  A
O239        C242   1.284   1_556  A
O240        H250   0.990       .  S
O241        H254   0.990   1_556  S
C242        C269   1.484   1_554  S
H244        O602   0.962       .  S
C265        C266   1.410   1_554  A
C265        C654   1.400       .  A
C265        H271   1.083       .  S
C266        C651   1.403       .  A
C267        C268   1.396       .  A
C267        C650   1.403       .  A
C267        H272   1.083       .  S
C268        C269   1.409       .  A
C268        H273   1.083       .  S
C269        C270   1.404   1_556  A
C270        C649   1.400   1_545  A
C270        H658   1.083   1_545  S
H274        C654   1.083       .  S
C275        C276   1.397       .  A
C275        C280   1.382   1_556  A
C275        H281   1.081   1_556  S
C276        C277   1.392   1_545  A
C277        C662   1.377       .  A
C277       H1434   1.081       .  S
C278        C279   1.395   1_556  A
C278        C661   1.377       .  A
C278        H283   1.084       .  S
C279        C664   1.396       .  A
C280        C663   1.396   1_545  A
C280        H284   1.084       .  S
H282       C1429   1.081       .  S
C285        C286   1.412       .  A
C285        C290   1.412       .  A
C285        H291   1.083       .  S
C286        C287   1.396       .  A
C287        C288   1.391       .  A
C287        H292   1.084       .  S
C288        C289   1.412       .  A
C288        H293   1.083       .  S
C289        C290   1.406       .  A
C290        H294   1.083       .  S
C295        C296   1.408       .  A
C295        C300   1.383       .  A
C295        H301   1.082       .  S
C296        C297   1.407       .  A
C297        C298   1.419       .  A
C297        H302   1.082       .  S
C298        C299   1.417       .  A
C298        H303   1.083       .  S
C299        C300   1.394       .  A
C300        H304   1.082       .  S
C305        C306   1.421       .  A
C305        C310   1.414       .  A
C305        H311   1.083       .  S
C306        C863   1.508       .  S
C306        C307   1.401       .  A
C307        C308   1.414       .  A
C307       H1080   1.083       .  S
C308        C309   1.421       .  A
C308        H313   1.083       .  S
C309        C611   1.509       .  S
C309        C310   1.402       .  A
C310        H314   1.083       .  S
H312       C1075   1.083       .  S
C315        C320   1.405       .  A
C315       C1084   1.409       .  A
C315       H1089   1.083       .  S
C316       C1083   1.409       .  A
C316       C1085   1.406   1_655  A
C317        C318   1.403       .  A
C317       C1084   1.406       .  A
C317        H322   1.083       .  S
C318        C319   1.409       .  A
C318        H707   1.083       .  S
C319        C605   1.495       .  S
C319        C320   1.407       .  A
C320        H324   1.083       .  S
H321       C1083   1.083       .  S
H323        C702   1.083   1_545  S
C325        C326   1.411       .  A
C325        C330   1.411       .  A
C325        H331   1.083       .  S
C326        C327   1.408       .  A
C327        C328   1.403       .  A
C327        H332   1.083       .  S
C328        C329   1.408       .  A
C328        H333   1.083       .  S
C329        C330   1.410       .  A
C330        H334   1.083       .  S
C335        C336   1.405       .  A
C335        C340   1.416       .  A
C335        H341   1.083       .  S
C336        C337   1.415       .  A
C337        C338   1.411       .  A
C337        H342   1.083       .  S
C338        C339   1.404       .  A
C338        H343   1.083       .  S
C339        C340   1.415       .  A
C340        H344   1.083       .  S
C345        C346   1.411       .  A
C345        C350   1.408       .  A
C345        H351   1.082       .  S
C346        C347   1.391       .  A
C347        C348   1.394       .  A
C347        H352   1.083       .  S
C348        C349   1.418       .  A
C348        H353   1.082       .  S
C349        C350   1.400       .  A
C350        H354   1.083       .  S
C355        C356   1.393       .  A
C355        C360   1.382       .  A
C355        H361   1.081       .  S
C356        C357   1.416       .  A
C357        C358   1.418       .  A
C357        H362   1.083       .  S
C358        C359   1.406       .  A
C358        H363   1.082       .  S
C359        C360   1.407       .  A
C360        H364   1.082       .  S
C365        C366   1.410       .  A
C365        C370   1.399       .  A
C365       H1139   1.083   1_455  S
C366        C793   1.483       .  S
C366        C367   1.403       .  A
C367        C368   1.396       .  A
C367        H372   1.083       .  S
C368        C369   1.409       .  A
C368        H373   1.083       .  S
C369        C370   1.404       .  A
C370        H374   1.083       .  S
H371       C1133   1.083       .  S
C375        C376   1.393       .  A
C375        C764   1.379   1_455  A
C375        H381   1.081       .  S
C376        C761   1.397       .  A
C377        C378   1.382       .  A
C377        C760   1.397   1_545  A
C377        H382   1.082       .  S
C378        C379   1.397       .  A
C378        H383   1.084       .  S
C379        C380   1.395   1_455  A
C380        C759   1.379   1_655  A
C380       H1536   1.084       .  S
H384       C1532   1.084       .  S
Zr385       O386   2.441       .  S
Zr385      O1155   2.472   1_455  S
Zr385       O388   2.467       .  S
Zr385       O391   2.531       .  S
Zr385      O1161   2.414   1_455  S
Zr385      O1162   2.393   1_455  S
Zr385       O395   2.437       .  S
Zr385       O396   2.394       .  S
O386        H442   0.990       .  S
O386        H450   0.990       .  S
O387      Zr1153   2.473       .  S
O387        C407   1.287       .  A
O388       C1177   1.292       .  A
O389       Zr399   2.405       .  S
O389        C408   1.277       .  A
O390       Zr398   2.418       .  S
O390        C409   1.284       .  A
O391        C408   1.303       .  A
O392       Zr400   2.406       .  S
O392        C407   1.266       .  A
O393      Zr1153   2.414       .  S
O393       Zr398   2.405       .  S
O393       Zr400   2.374       .  S
O394      Zr1153   2.393       .  S
O394      Zr1167   2.366       .  S
O394       Zr400   2.400       .  S
O394        H429   0.963       .  S
O395      Zr1166   2.424   1_455  S
O395       Zr415   2.390       .  S
O395        H432   0.964       .  S
O396       Zr399   2.388       .  S
O396       Zr415   2.406       .  S
Zr397       O422   2.440       .  S
Zr397      O1184   2.467       .  S
Zr397       O424   2.385       .  S
Zr397       O412   2.413       .  S
Zr397       O403   2.434       .  S
Zr397       O404   2.424       .  S
Zr397      O1173   2.375       .  S
Zr397      O1174   2.410       .  S
Zr398      O1185   2.433       .  S
Zr398       O410   2.435       .  S
Zr398       O411   2.465       .  S
Zr398      O1163   2.424       .  S
Zr398       O404   2.409       .  S
Zr398      O1173   2.409       .  S
Zr399       O401   2.421       .  S
Zr399      O1191   2.438       .  S
Zr399       O425   2.427   1_455  S
Zr399      O1162   2.366   1_455  S
Zr399      O1171   2.373   1_455  S
Zr399       O406   2.395       .  S
Zr400       O426   2.434       .  S
Zr400       O427   2.436       .  S
Zr400       O402   2.436       .  S
Zr400       O403   2.369       .  S
Zr400       O404   2.383       .  S
O401        H438   0.989       .  S
O402        H433   0.991       .  S
O402        H447   0.990       .  S
O403      Zr1167   2.373       .  S
O404        H430   0.964       .  S
O405      Zr1165   2.375   1_455  S
O405      Zr1166   2.409   1_455  S
O405       Zr415   2.390       .  S
O406      Zr1165   2.410   1_455  S
O406       Zr415   2.376       .  S
O406        H431   0.964       .  S
C407        C740   1.482       .  S
C408        C720   1.506       .  S
C409       O1156   1.292       .  A
C409       C1518   1.483       .  S
O410        H446   0.990       .  S
O411        C413   1.285       .  A
O412        C413   1.275       .  A
C413        C730   1.471       .  S
O414       Zr415   2.440       .  S
O414        H443   0.990       .  S
Zr415       O418   2.436       .  S
Zr415       O419   2.438       .  S
Zr415       O420   2.437       .  S
O416      Zr1165   2.467   1_455  S
O416        C421   1.289       .  A
O417      Zr1166   2.433   1_455  S
O417       H1202   0.990   1_455  S
O417        H449   0.990       .  S
O418        H435   0.990       .  S
O419        H439   0.990       .  S
O419        H448   0.990       .  S
O420        C421   1.284       .  A
C421        C710   1.501       .  S
O422        H441   0.989       .  S
O422        H445   0.989       .  S
O423      Zr1167   2.438       .  S
O423       H1205   0.990       .  S
O423        H444   0.990       .  S
O424       C1196   1.257       .  A
O425        C428   1.269       .  A
O426        H436   0.990       .  S
O427        H440   0.990       .  S
C428       O1192   1.257       .  A
C428        C763   1.419   1_655  S
H434       O1185   0.990       .  S
H437       O1191   0.990       .  S
Zr451       O452   2.450       .  S
Zr451       O453   2.448       .  S
Zr451       O454   2.422       .  S
Zr451       O457   2.387       .  S
Zr451       O459   2.419       .  S
Zr451       O460   2.394       .  S
Zr451       O461   2.473       .  S
Zr451       O462   2.406       .  S
O452        H508   0.989       .  S
O452        H516   0.990       .  S
O453        C473   1.288       .  A
O454        C475   1.260       .  A
O455       Zr465   2.520       .  S
O455        C474   1.292       .  A
O456       Zr464   2.361       .  S
O456        C475   1.253       .  A
O457        C474   1.263       .  A
O458       Zr466   2.445       .  S
O458        C473   1.287       .  A
O459       Zr464   2.387       .  S
O459       Zr466   2.352       .  S
O460       Zr465   2.394       .  S
O460       Zr466   2.375       .  S
O460        H495   0.966       .  S
O461       Zr464   2.406       .  S
O461       Zr481   2.391       .  S
O461        H498   0.972       .  S
O462       Zr465   2.368       .  S
O462       Zr481   2.381       .  S
Zr463       O488   2.437       .  S
Zr463       O482   2.489       .  S
Zr463       O490   2.468       .  S
Zr463       O478   2.560       .  S
Zr463       O469   2.431       .  S
Zr463       O470   2.400       .  S
Zr463       O471   2.376       .  S
Zr463       O472   2.432       .  S
Zr464       O483   2.441       .  S
Zr464       O476   2.433       .  S
Zr464       O477   2.391       .  S
Zr464       O470   2.403       .  S
Zr464       O471   2.379       .  S
Zr465       O467   2.434       .  S
Zr465       O489   2.437       .  S
Zr465       O491   2.414       .  S
Zr465       O469   2.418       .  S
Zr465       O472   2.414       .  S
Zr466       O492   2.435       .  S
Zr466      O1261   2.435   1_455  S
Zr466      O1236   2.437   1_455  S
Zr466       O469   2.382       .  S
Zr466       O470   2.399       .  S
O467        H504   0.990       .  S
O468      Zr1234   2.437       .  S
O468        H499   0.990       .  S
O468        H513   0.990       .  S
O470        H496   0.962       .  S
O471       Zr481   2.412       .  S
O472       Zr481   2.383       .  S
O472        H497   0.966       .  S
C473        C700   1.493   1_455  S
C474        C680   1.495       .  S
C475        C760   1.411       .  S
O476        H512   0.990       .  S
O477        C479   1.274       .  A
O478        C479   1.308       .  A
C479       C1458   1.507   1_455  S
O480       Zr481   2.443       .  S
O480        H509   0.990       .  S
Zr481       O484   2.435       .  S
Zr481       O485   2.440       .  S
Zr481       O486   2.395       .  S
O482        C487   1.289       .  A
O483        H500   0.989       .  S
O483        H515   0.989       .  S
O484        H501   0.990       .  S
O485        H505   0.990       .  S
O485        H514   0.989       .  S
O486        C487   1.263       .  A
C487        C670   1.476       .  S
O488        H507   0.990       .  S
O488       H1279   0.990       .  S
O489        H503   0.990       .  S
O489        H510   0.990       .  S
O490        C494   1.294       .  A
O491        C494   1.284       .  A
O492       H1270   0.990   1_455  S
O493      Zr1234   2.435       .  S
O493        H506   0.990       .  S
C494        C753   1.484       .  S
H502       O1260   0.990       .  S
H511       O1256   0.990       .  S
Zr517       O519   2.476       .  S
Zr517       O520   2.468   1_565  S
Zr517       O525   2.415       .  S
Zr517       O526   2.395       .  S
O518        H574   0.990       .  S
O518        H582   0.990       .  S
O519        C539   1.288       .  A
O520        C541   1.292   1_545  A
O521       Zr531   2.407       .  S
O521        C540   1.277       .  A
O522       Zr530   2.415       .  S
O522        C541   1.283   1_554  A
O523        C540   1.302       .  A
O524       Zr532   2.407       .  S
O524        C539   1.268       .  A
O525       Zr530   2.411   1_556  S
O525       Zr532   2.378       .  S
O526       Zr532   2.401       .  S
O526        H561   0.963       .  S
O527       Zr547   2.395       .  S
O527        H564   0.964       .  S
O528       Zr531   2.392       .  S
O528       Zr547   2.405   1_556  S
Zr529       O554   2.449       .  S
Zr529       O548   2.461   1_565  S
Zr529       O556   2.374       .  S
Zr529       O544   2.385       .  S
Zr529       O535   2.430   1_554  S
Zr529       O536   2.426       .  S
Zr529       O537   2.376       .  S
Zr530       O549   2.434       .  S
Zr530       O542   2.435       .  S
Zr530       O543   2.486       .  S
Zr530       O536   2.400       .  S
Zr530       O537   2.403       .  S
Zr531       O533   2.428       .  S
Zr531       O538   2.379   1_556  S
Zr532       O558   2.435       .  S
Zr532       O559   2.436       .  S
Zr532       O534   2.435       .  S
Zr532       O535   2.375       .  S
Zr532       O536   2.393   1_556  S
O533        H570   0.990       .  S
O534        H565   0.991       .  S
O534        H579   0.990   1_556  S
O536        H562   0.965       .  S
O538       Zr547   2.369       .  S
O538        H563   0.964       .  S
C539        C683   1.485       .  S
C540        C723   1.502       .  S
C541        C650   1.483   1_565  S
O542        H578   0.990       .  S
O543        C545   1.282       .  A
O544        C545   1.261       .  A
C545        C673   1.491       .  S
O546       Zr547   2.440       .  S
O546        H575   0.990       .  S
Zr547       O550   2.437       .  S
Zr547       O551   2.438       .  S
Zr547       O552   2.451       .  S
O549        H566   0.990       .  S
O549        H581   0.990   1_565  S
O550        H567   0.990       .  S
O551        H571   0.990       .  S
O551        H580   0.990       .  S
O552        C553   1.288       .  A
C553        C713   1.501       .  S
O554        H573   0.990       .  S
O554        H577   0.989       .  S
O555        H569   0.990       .  S
O555        H576   0.990       .  S
O556        C560   1.260       .  A
O557        C560   1.271       .  A
O558        H568   0.990       .  S
O559        H572   0.990   1_556  S
C560        C663   1.417       .  S
Zr583       O584   2.451       .  S
Zr583       O585   2.436       .  S
Zr583       O586   2.413       .  S
Zr583       O589   2.388       .  S
Zr583       O591   2.421       .  S
Zr583       O592   2.394       .  S
Zr583       O593   2.468       .  S
Zr583       O594   2.394       .  S
O584        H640   0.989       .  S
O584        H648   0.990       .  S
O585        C605   1.286       .  A
O586       C1375   1.261       .  A
O587       Zr597   2.513       .  S
O587        C606   1.290       .  A
O588       Zr596   2.373   1_556  S
O588       C1375   1.258       .  A
O589        C606   1.262       .  A
O590       Zr598   2.460       .  S
O591       Zr596   2.384   1_556  S
O592       Zr597   2.392       .  S
O592        H627   0.966       .  S
O593       Zr596   2.401   1_556  S
O593       Zr613   2.385   1_556  S
O593        H630   0.971       .  S
O594       Zr597   2.371       .  S
O594       Zr613   2.380   1_556  S
Zr595       O614   2.529       .  S
Zr595       O622   2.470       .  S
Zr595       O610   2.570       .  S
Zr595       O601   2.441   1_554  S
Zr595       O602   2.410       .  S
Zr595       O603   2.376       .  S
Zr595       O604   2.422       .  S
Zr596       O615   2.439       .  S
Zr596       O609   2.389       .  S
Zr596       O602   2.404       .  S
Zr596       O603   2.387       .  S
Zr597       O599   2.434       .  S
Zr597       O621   2.437       .  S
Zr597       O623   2.414       .  S
Zr597       O601   2.418       .  S
Zr597       O604   2.400   1_556  S
Zr598       O624   2.435       .  S
Zr598       O625   2.435       .  S
Zr598       O600   2.437       .  S
O599        H636   0.990       .  S
O600        H631   0.990       .  S
O600        H645   0.990       .  S
O603       Zr613   2.405       .  S
O604       Zr613   2.395       .  S
O604        H629   0.966       .  S
C606        C743   1.492       .  S
C607       O1354   1.261       .  A
C607       O1356   1.258       .  A
C607        C660   1.409   1_655  S
O608        H644   0.990       .  S
O609        C611   1.276       .  A
O610        C611   1.310       .  A
O612       Zr613   2.441   1_556  S
O612        H641   0.991   1_556  S
Zr613       O616   2.439       .  S
Zr613       O617   2.438   1_554  S
Zr613       O618   2.370       .  S
O614        C619   1.296       .  A
O615        H632   0.990       .  S
O615        H647   0.988       .  S
O616        H633   0.989       .  S
O617        H637   0.990   1_556  S
O617        H646   0.990       .  S
O618        C619   1.259       .  A
C619        C733   1.492       .  S
O620        H639   0.990   1_545  S
O620        H643   0.990       .  S
O621        H635   0.990       .  S
O621        H642   0.990       .  S
O622        C626   1.295       .  A
O623        C626   1.284   1_556  A
O624        H634   0.990       .  S
O625        H638   0.990   1_556  S
C626        C653   1.485       .  S
C649        C650   1.410   1_564  A
C649        H655   1.083       .  S
C651        C652   1.396       .  A
C651        H656   1.083       .  S
C652        C653   1.410   1_556  A
C652        H657   1.083       .  S
C653        C654   1.404       .  A
C659        C660   1.397       .  A
C659        C664   1.382   1_556  A
C659        H665   1.081   1_556  S
C660        C661   1.392       .  A
C661       H1050   1.081       .  S
C662        C663   1.395   1_556  A
C662        H667   1.084       .  S
C664        H668   1.084       .  S
H666       C1045   1.081       .  S
C669        C670   1.412       .  A
C669        C674   1.412       .  A
C669        H675   1.083       .  S
C670        C671   1.396       .  A
C671        C672   1.391       .  A
C671        H676   1.084       .  S
C672        C673   1.412       .  A
C672        H677   1.083       .  S
C673        C674   1.406       .  A
C674        H678   1.083       .  S
C679        C680   1.408       .  A
C679        C684   1.383       .  A
C679        H685   1.082       .  S
C680        C681   1.407       .  A
C681        C682   1.419       .  A
C681        H686   1.082       .  S
C682        C683   1.417       .  A
C682        H687   1.083       .  S
C683        C684   1.394       .  A
C684        H688   1.082       .  S
C689        C690   1.421       .  A
C689        C694   1.414       .  A
C689        H695   1.083       .  S
C690       C1247   1.507       .  S
C690        C691   1.401       .  A
C691        C692   1.413       .  A
C691       H1464   1.083       .  S
C692        C693   1.421       .  A
C692        H697   1.083       .  S
C693        C694   1.401       .  A
C694        H698   1.083       .  S
H696       C1459   1.083       .  S
C699       C1468   1.409       .  A
C699        C704   1.405       .  A
C699       H1473   1.083       .  S
C700       C1467   1.409       .  A
C700       C1469   1.407   1_655  A
C701       C1468   1.406       .  A
C701        C702   1.403       .  A
C701        H706   1.083       .  S
C702        C703   1.409       .  A
C703        C704   1.407       .  A
C704        H708   1.083       .  S
H705       C1467   1.083       .  S
C709        C710   1.411       .  A
C709        C714   1.411       .  A
C709        H715   1.083       .  S
C710        C711   1.408       .  A
C711        C712   1.403       .  A
C711        H716   1.083       .  S
C712        C713   1.408       .  A
C712        H717   1.083       .  S
C713        C714   1.410       .  A
C714        H718   1.083       .  S
C719        C720   1.405       .  A
C719        C724   1.416       .  A
C719        H725   1.083       .  S
C720        C721   1.415       .  A
C721        C722   1.411       .  A
C721        H726   1.083       .  S
C722        C723   1.403       .  A
C722        H727   1.083       .  S
C723        C724   1.415       .  A
C724        H728   1.083       .  S
C729        C730   1.411       .  A
C729        C734   1.408       .  A
C729        H735   1.082       .  S
C730        C731   1.391       .  A
C731        C732   1.394       .  A
C731        H736   1.083       .  S
C732        C733   1.418       .  A
C732        H737   1.082       .  S
C733        C734   1.400       .  A
C734        H738   1.083       .  S
C739        C740   1.393       .  A
C739        C744   1.382       .  A
C739        H745   1.081       .  S
C740        C741   1.416       .  A
C741        C742   1.418       .  A
C741        H746   1.083       .  S
C742        C743   1.406       .  A
C742        H747   1.082       .  S
C743        C744   1.407       .  A
C744        H748   1.082       .  S
C749        C750   1.410       .  A
C749        C754   1.399       .  A
C749       H1523   1.083   1_455  S
C750       C1177   1.483       .  S
C750        C751   1.403       .  A
C751        C752   1.396       .  A
C751        H756   1.083       .  S
C752        C753   1.409       .  A
C752        H757   1.083       .  S
C753        C754   1.404       .  A
C754        H758   1.083       .  S
H755       C1517   1.083       .  S
C759        C760   1.393   1_545  A
C759        H765   1.081   1_545  S
C761        C762   1.382       .  A
C761        H766   1.082       .  S
C762        C763   1.397       .  A
C762        H767   1.084       .  S
C763        C764   1.395   1_455  A
C764       H1152   1.084       .  S
H768       C1148   1.084       .  S
Zr769       O770   2.441       .  S
Zr769       O772   2.467       .  S
Zr769       O775   2.530       .  S
Zr769       O779   2.437       .  S
Zr769       O780   2.394       .  S
O770        H826   0.990       .  S
O770        H834   0.990       .  S
O771        C791   1.287       .  A
O773       Zr783   2.405       .  S
O773        C792   1.277       .  A
O774       Zr782   2.418       .  S
O774        C793   1.284   1_655  A
O775        C792   1.303       .  A
O776       Zr784   2.406       .  S
O776        C791   1.266       .  A
O777       Zr782   2.405       .  S
O777       Zr784   2.374       .  S
O778       Zr784   2.400       .  S
O778        H813   0.963       .  S
O779       Zr799   2.390       .  S
O779        H816   0.964       .  S
O780       Zr783   2.388       .  S
O780       Zr799   2.406       .  S
Zr781       O806   2.440       .  S
Zr781       O808   2.385       .  S
Zr781       O796   2.413       .  S
Zr781       O787   2.434       .  S
Zr781       O788   2.424       .  S
Zr782       O794   2.435       .  S
Zr782       O795   2.465       .  S
Zr782       O788   2.409       .  S
Zr783       O785   2.421       .  S
Zr783       O809   2.428       .  S
Zr783       O790   2.395       .  S
Zr784       O810   2.434       .  S
Zr784       O811   2.436       .  S
Zr784       O786   2.436       .  S
Zr784       O787   2.369       .  S
Zr784       O788   2.383       .  S
O785        H822   0.989       .  S
O786        H817   0.991       .  S
O786        H831   0.990       .  S
O788        H814   0.964       .  S
O789       Zr799   2.390       .  S
O790       Zr799   2.376       .  S
O790        H815   0.965       .  S
C791       C1124   1.482       .  S
C792       C1104   1.506       .  S
O794        H830   0.990       .  S
O795        C797   1.285       .  A
O796        C797   1.275       .  A
C797       C1114   1.471       .  S
O798       Zr799   2.440       .  S
O798        H827   0.990       .  S
Zr799       O802   2.437       .  S
Zr799       O803   2.438       .  S
Zr799       O804   2.437       .  S
O800        C805   1.289       .  A
O801        H833   0.990       .  S
O802        H819   0.990       .  S
O803        H823   0.990       .  S
O803        H832   0.990       .  S
O804        C805   1.284       .  A
C805       C1094   1.501       .  S
O806        H825   0.989       .  S
O806        H829   0.989       .  S
O807        H828   0.990   1_455  S
O809        C812   1.269       .  A
O810        H820   0.990       .  S
O811        H824   0.990       .  S
C812       C1147   1.419       .  S
Zr835       O836   2.450       .  S
Zr835       O837   2.449       .  S
Zr835       O838   2.422       .  S
Zr835       O841   2.387       .  S
Zr835       O843   2.419       .  S
Zr835       O844   2.394       .  S
Zr835       O845   2.473       .  S
Zr835       O846   2.406       .  S
O836        H892   0.989       .  S
O836        H900   0.990       .  S
O837        C857   1.289       .  A
O838        C859   1.260       .  A
O839       Zr849   2.520       .  S
O839        C858   1.292       .  A
O840       Zr848   2.362       .  S
O840        C859   1.253       .  A
O841        C858   1.263       .  A
O842       Zr850   2.444       .  S
O842        C857   1.286       .  A
O843       Zr848   2.387       .  S
O843       Zr850   2.352       .  S
O844       Zr849   2.394       .  S
O844       Zr850   2.375       .  S
O844        H879   0.966       .  S
O845       Zr848   2.406       .  S
O845       Zr865   2.391       .  S
O845        H882   0.972       .  S
O846       Zr849   2.368       .  S
O846       Zr865   2.381       .  S
Zr847       O872   2.437       .  S
Zr847       O866   2.489       .  S
Zr847       O874   2.468       .  S
Zr847       O862   2.561       .  S
Zr847       O853   2.431       .  S
Zr847       O854   2.400       .  S
Zr847       O855   2.376       .  S
Zr847       O856   2.432       .  S
Zr848       O867   2.441       .  S
Zr848       O860   2.433       .  S
Zr848       O861   2.392       .  S
Zr848       O854   2.403       .  S
Zr848       O855   2.379       .  S
Zr849       O851   2.434       .  S
Zr849       O873   2.437       .  S
Zr849       O875   2.414       .  S
Zr849       O853   2.418       .  S
Zr849       O856   2.414       .  S
Zr850       O876   2.435       .  S
Zr850       O853   2.382       .  S
Zr850       O854   2.399       .  S
O851        H888   0.990       .  S
O852        H883   0.990       .  S
O852        H897   0.990       .  S
O854        H880   0.962       .  S
O855       Zr865   2.412       .  S
O856       Zr865   2.383       .  S
O856        H881   0.966       .  S
C857       C1084   1.493       .  S
C858       C1064   1.495       .  S
C859       C1144   1.411       .  S
O860        H896   0.990       .  S
O861        C863   1.274       .  A
O862        C863   1.308       .  A
O864       Zr865   2.443       .  S
O864        H893   0.990       .  S
Zr865       O868   2.435       .  S
Zr865       O869   2.440       .  S
Zr865       O870   2.395       .  S
O866        C871   1.289       .  A
O867        H884   0.989       .  S
O867        H899   0.989       .  S
O868        H885   0.990       .  S
O869        H889   0.990       .  S
O869        H898   0.989       .  S
O870        C871   1.263       .  A
C871       C1054   1.476       .  S
O872        H891   0.990       .  S
O873        H887   0.990       .  S
O873        H894   0.990       .  S
O874        C878   1.294       .  A
O875        C878   1.284       .  A
O877        H890   0.990       .  S
C878       C1137   1.484       .  S
Zr901      O1286   2.441       .  S
Zr901       O903   2.476       .  S
Zr901       O904   2.468       .  S
Zr901      O1291   2.529       .  S
Zr901       O909   2.415       .  S
Zr901       O910   2.395       .  S
Zr901      O1295   2.439   1_556  S
Zr901      O1296   2.395       .  S
O902      Zr1285   2.441   1_545  S
O902        H958   0.990       .  S
O902        H966   0.990       .  S
O903        C923   1.288       .  A
O904        C925   1.292       .  A
O905       Zr915   2.406   1_545  S
O905        C924   1.277       .  A
O906       Zr914   2.415       .  S
O906        C925   1.283   1_554  A
O907      Zr1285   2.529   1_545  S
O907        C924   1.302       .  A
O908       Zr916   2.407       .  S
O908        C923   1.268       .  A
O909       Zr914   2.411   1_556  S
O909       Zr916   2.378       .  S
O910      Zr1299   2.368       .  S
O910       Zr916   2.401       .  S
O910        H945   0.963       .  S
O911      Zr1285   2.439   1_544  S
O911      Zr1298   2.431   1_545  S
O911       Zr931   2.395       .  S
O911        H948   0.964       .  S
O912      Zr1285   2.394   1_545  S
O912       Zr915   2.392   1_545  S
O912       Zr931   2.405   1_556  S
Zr913       O938   2.449       .  S
Zr913       O932   2.461       .  S
Zr913       O940   2.374       .  S
Zr913       O928   2.385       .  S
Zr913       O919   2.430   1_554  S
Zr913       O920   2.426       .  S
Zr913       O921   2.376       .  S
Zr913      O1306   2.410       .  S
Zr914       O933   2.434       .  S
Zr914       O926   2.435       .  S
Zr914       O927   2.486       .  S
Zr914      O1295   2.431       .  S
Zr914       O920   2.400       .  S
Zr914       O921   2.403       .  S
Zr915       O917   2.428   1_565  S
Zr915      O1323   2.438       .  S
Zr915      O1325   2.432   1_556  S
Zr915      O1294   2.368       .  S
Zr915      O1303   2.365       .  S
Zr915       O922   2.379   1_566  S
Zr916       O942   2.435       .  S
Zr916       O943   2.436       .  S
Zr916       O918   2.435       .  S
Zr916       O919   2.375       .  S
Zr916       O920   2.393   1_556  S
O917        H954   0.990       .  S
O918        H949   0.991       .  S
O918        H963   0.990   1_556  S
O919      Zr1299   2.365       .  S
O920        H946   0.965       .  S
O921      Zr1315   2.377       .  S
O922      Zr1297   2.410   1_545  S
O922       Zr931   2.369       .  S
O922        H947   0.964       .  S
C923       C1067   1.485       .  S
C924       C1107   1.502       .  S
C925       C1034   1.483       .  S
O926        H962   0.990       .  S
O927        C929   1.282       .  A
O928        C929   1.261       .  A
C929       C1057   1.491       .  S
O930       Zr931   2.440       .  S
O930        H959   0.990       .  S
Zr931       O934   2.437       .  S
Zr931       O935   2.438       .  S
Zr931       O936   2.450       .  S
Zr931      O1305   2.377   1_545  S
O932       C1321   1.291       .  A
O933        H950   0.990       .  S
O933        H965   0.990       .  S
O934        H951   0.990       .  S
O935        H955   0.990       .  S
O935        H964   0.990       .  S
O936        C937   1.288       .  A
C937       O1316   1.291       .  A
C937       C1097   1.500       .  S
O938        H957   0.990       .  S
O938        H961   0.989       .  S
O939      Zr1299   2.438       .  S
O939        H953   0.990       .  S
O939        H960   0.990       .  S
O940        C944   1.260       .  A
O941      Zr1299   2.432   1_554  S
O941        C944   1.271       .  A
O942        H952   0.990       .  S
O943        H956   0.990   1_556  S
C944       C1047   1.417       .  S
Zr967       O968   2.452       .  S
Zr967       O969   2.437       .  S
Zr967       O970   2.413       .  S
Zr967       O973   2.388       .  S
Zr967       O975   2.420       .  S
Zr967       O976   2.393       .  S
Zr967       O977   2.468       .  S
Zr967       O978   2.394       .  S
O968       H1024   0.989       .  S
O968       H1032   0.990       .  S
O969        C989   1.286   1_545  A
O971       Zr981   2.513       .  S
O971        C990   1.290       .  A
O972       Zr980   2.372   1_556  S
O973        C990   1.262       .  A
O974       Zr982   2.460       .  S
O974       C1373   1.290       .  A
O975       Zr980   2.384   1_556  S
O975      Zr1366   2.349   1_545  S
O976       Zr981   2.392       .  S
O976      Zr1366   2.373   1_545  S
O976       H1011   0.966       .  S
O977       Zr980   2.403   1_556  S
O977       Zr997   2.386   1_556  S
O977       H1014   0.971       .  S
O978       Zr981   2.371       .  S
O978       Zr997   2.380   1_556  S
Zr979      O1388   2.437       .  S
Zr979       O998   2.528       .  S
Zr979      O1006   2.468       .  S
Zr979       O994   2.568   1_545  S
Zr979       O985   2.440   1_554  S
Zr979       O986   2.410       .  S
Zr979       O987   2.375       .  S
Zr979       O988   2.424       .  S
Zr980       O999   2.439       .  S
Zr980      O1376   2.428   1_545  S
Zr980       O993   2.391   1_545  S
Zr980       O986   2.404       .  S
Zr980       O987   2.387       .  S
Zr981       O983   2.435       .  S
Zr981      O1005   2.437       .  S
Zr981      O1007   2.414       .  S
Zr981       O985   2.417       .  S
Zr981       O988   2.401   1_556  S
Zr982      O1008   2.435       .  S
Zr982      O1009   2.435       .  S
Zr982       O984   2.437       .  S
Zr982      O1359   2.349       .  S
Zr982      O1360   2.373       .  S
Zr982      O1369   2.391       .  S
Zr982      O1370   2.402   1_556  S
O983       H1020   0.990       .  S
O984       H1015   0.990       .  S
O984       H1029   0.990       .  S
O985      Zr1366   2.390   1_545  S
O986      Zr1366   2.402   1_544  S
O986       H1396   0.962   1_545  S
O987       Zr997   2.405       .  S
O988       Zr997   2.395       .  S
O988       H1013   0.966       .  S
C989       O1358   1.289       .  A
C989       C1471   1.494       .  S
C990       C1127   1.492       .  S
C991       C1044   1.409       .  S
O992      Zr1364   2.428       .  S
O992       H1028   0.990       .  S
O993        C995   1.276       .  A
O994        C995   1.310       .  A
C995       C1461   1.509       .  S
O996       Zr997   2.441   1_556  S
O996       H1025   0.991   1_556  S
Zr997      O1000   2.440       .  S
Zr997      O1001   2.439   1_554  S
Zr997      O1002   2.371       .  S
O998       C1003   1.295       .  A
O999       H1016   0.990   1_655  S
O999       H1031   0.988       .  S
O1000      H1017   0.989       .  S
O1001      H1021   0.990   1_556  S
O1001      H1030   0.990       .  S
O1002      C1003   1.259       .  A
C1003      C1117   1.492       .  S
O1004     Zr1363   2.437       .  S
O1004      H1023   0.990       .  S
O1004      H1027   0.990       .  S
O1005      H1019   0.990       .  S
O1005      H1026   0.990       .  S
O1006      C1010   1.294       .  A
O1007      C1010   1.284   1_556  A
O1008      H1018   0.990       .  S
O1009      H1022   0.990   1_556  S
C1010      C1037   1.483   1_554  S
H1012      O1370   0.962       .  S
C1033      C1034   1.410   1_554  A
C1033      C1422   1.400       .  A
C1033      H1039   1.083       .  S
C1034      C1419   1.403       .  A
C1035      C1418   1.403       .  A
C1035      C1036   1.395       .  A
C1035      H1040   1.083       .  S
C1036      C1037   1.409       .  A
C1036      H1041   1.083       .  S
C1037      C1038   1.404   1_556  A
C1038      C1417   1.400   1_545  A
C1038      H1426   1.083   1_545  S
H1042      C1422   1.083       .  S
C1043      C1044   1.397       .  A
C1043      C1048   1.382   1_556  A
C1043      H1049   1.081   1_556  S
C1044      C1045   1.392   1_545  A
C1045      C1430   1.377       .  A
C1046      C1429   1.377       .  A
C1046      C1047   1.395   1_556  A
C1046      H1051   1.084       .  S
C1047      C1432   1.396       .  A
C1048      C1431   1.396   1_545  A
C1048      H1052   1.084       .  S
C1053      C1054   1.412       .  A
C1053      C1058   1.412       .  A
C1053      H1059   1.083       .  S
C1054      C1055   1.396       .  A
C1055      C1056   1.391       .  A
C1055      H1060   1.084       .  S
C1056      C1057   1.412       .  A
C1056      H1061   1.083       .  S
C1057      C1058   1.406       .  A
C1058      H1062   1.083       .  S
C1063      C1064   1.408       .  A
C1063      C1068   1.383       .  A
C1063      H1069   1.082       .  S
C1064      C1065   1.407       .  A
C1065      C1066   1.419       .  A
C1065      H1070   1.082       .  S
C1066      C1067   1.417       .  A
C1066      H1071   1.083       .  S
C1067      C1068   1.394       .  A
C1068      H1072   1.082       .  S
C1073      C1074   1.421       .  A
C1073      C1078   1.414       .  A
C1073      H1079   1.083       .  S
C1074      C1075   1.401       .  A
C1075      C1076   1.413       .  A
C1076      C1077   1.421       .  A
C1076      H1081   1.083       .  S
C1077      C1379   1.509       .  S
C1077      C1078   1.401       .  A
C1078      H1082   1.083       .  S
C1083      C1088   1.405       .  A
C1085      C1086   1.403   1_455  A
C1085      H1090   1.083       .  S
C1086      C1087   1.409       .  A
C1086      H1475   1.083       .  S
C1087      C1373   1.494       .  S
C1087      C1088   1.407       .  A
C1088      H1092   1.083       .  S
H1091      C1470   1.083   1_545  S
C1093      C1094   1.411       .  A
C1093      C1098   1.411       .  A
C1093      H1099   1.083       .  S
C1094      C1095   1.408       .  A
C1095      C1096   1.403       .  A
C1095      H1100   1.083       .  S
C1096      C1097   1.408       .  A
C1096      H1101   1.083       .  S
C1097      C1098   1.410       .  A
C1098      H1102   1.083       .  S
C1103      C1104   1.405       .  A
C1103      C1108   1.416       .  A
C1103      H1109   1.083       .  S
C1104      C1105   1.415       .  A
C1105      C1106   1.411       .  A
C1105      H1110   1.083       .  S
C1106      C1107   1.403       .  A
C1106      H1111   1.083       .  S
C1107      C1108   1.415       .  A
C1108      H1112   1.083       .  S
C1113      C1114   1.411       .  A
C1113      C1118   1.408       .  A
C1113      H1119   1.082       .  S
C1114      C1115   1.391       .  A
C1115      C1116   1.394       .  A
C1115      H1120   1.083       .  S
C1116      C1117   1.418       .  A
C1116      H1121   1.082       .  S
C1117      C1118   1.400       .  A
C1118      H1122   1.083       .  S
C1123      C1124   1.393       .  A
C1123      C1128   1.382       .  A
C1123      H1129   1.081       .  S
C1124      C1125   1.416       .  A
C1125      C1126   1.418       .  A
C1125      H1130   1.083       .  S
C1126      C1127   1.406       .  A
C1126      H1131   1.082       .  S
C1127      C1128   1.407       .  A
C1128      H1132   1.083       .  S
C1133      C1134   1.410       .  A
C1133      C1138   1.399       .  A
C1134      C1135   1.403       .  A
C1135      C1136   1.396       .  A
C1135      H1140   1.083       .  S
C1136      C1137   1.409       .  A
C1136      H1141   1.083       .  S
C1137      C1138   1.404       .  A
C1138      H1142   1.083       .  S
C1143      C1144   1.393       .  A
C1143      C1532   1.379       .  A
C1143      H1149   1.081       .  S
C1144      C1529   1.397       .  A
C1145      C1528   1.397   1_545  A
C1145      C1146   1.382       .  A
C1145      H1150   1.082       .  S
C1146      C1147   1.397       .  A
C1146      H1151   1.084       .  S
C1147      C1148   1.396       .  A
C1148      C1527   1.379       .  A
Zr1153     O1154   2.441       .  S
Zr1153     O1156   2.467       .  S
Zr1153     O1159   2.531       .  S
Zr1153     O1163   2.437       .  S
Zr1153     O1164   2.394       .  S
O1154      H1210   0.990       .  S
O1154      H1218   0.990       .  S
O1155      C1175   1.287       .  A
O1157     Zr1167   2.405       .  S
O1157      C1176   1.277       .  A
O1158     Zr1166   2.418       .  S
O1158      C1177   1.284   1_655  A
O1159      C1176   1.303       .  A
O1160     Zr1168   2.406       .  S
O1160      C1175   1.266       .  A
O1161     Zr1166   2.405       .  S
O1161     Zr1168   2.374       .  S
O1162     Zr1168   2.400       .  S
O1162      H1197   0.963       .  S
O1163     Zr1183   2.390       .  S
O1163      H1200   0.964       .  S
O1164     Zr1167   2.388       .  S
O1164     Zr1183   2.406       .  S
Zr1165     O1190   2.440       .  S
Zr1165     O1192   2.385       .  S
Zr1165     O1180   2.413       .  S
Zr1165     O1171   2.434       .  S
Zr1165     O1172   2.424       .  S
Zr1166     O1178   2.435       .  S
Zr1166     O1179   2.465       .  S
Zr1166     O1172   2.409       .  S
Zr1167     O1169   2.421       .  S
Zr1167     O1193   2.427       .  S
Zr1167     O1174   2.395       .  S
Zr1168     O1194   2.434       .  S
Zr1168     O1195   2.436       .  S
Zr1168     O1170   2.436       .  S
Zr1168     O1171   2.369       .  S
Zr1168     O1172   2.383       .  S
O1169      H1206   0.989       .  S
O1170      H1201   0.991       .  S
O1170      H1215   0.990       .  S
O1172      H1198   0.964       .  S
O1173     Zr1183   2.390       .  S
O1174     Zr1183   2.376       .  S
O1174      H1199   0.964       .  S
C1175      C1508   1.482       .  S
C1176      C1488   1.506       .  S
O1178      H1214   0.990       .  S
O1179      C1181   1.285       .  A
O1180      C1181   1.275       .  A
C1181      C1498   1.471       .  S
O1182     Zr1183   2.440       .  S
O1182      H1211   0.990       .  S
Zr1183     O1186   2.437       .  S
Zr1183     O1187   2.438       .  S
Zr1183     O1188   2.437       .  S
O1184      C1189   1.289       .  A
O1185      H1217   0.990       .  S
O1186      H1203   0.990       .  S
O1187      H1207   0.990       .  S
O1187      H1216   0.990       .  S
O1188      C1189   1.284       .  A
C1189      C1478   1.501       .  S
O1190      H1209   0.989       .  S
O1190      H1213   0.989       .  S
O1191      H1212   0.990   1_455  S
O1193      C1196   1.269       .  A
O1194      H1204   0.990       .  S
O1195      H1208   0.990       .  S
C1196      C1531   1.419       .  S
Zr1219     O1220   2.450       .  S
Zr1219     O1221   2.448       .  S
Zr1219     O1222   2.423       .  S
Zr1219     O1225   2.387       .  S
Zr1219     O1227   2.419       .  S
Zr1219     O1228   2.394       .  S
Zr1219     O1229   2.473       .  S
Zr1219     O1230   2.406       .  S
O1220      H1276   0.989       .  S
O1220      H1284   0.990       .  S
O1221      C1241   1.288       .  A
O1222      C1243   1.260       .  A
O1223     Zr1233   2.520       .  S
O1223      C1242   1.292       .  A
O1224     Zr1232   2.361       .  S
O1224      C1243   1.253       .  A
O1225      C1242   1.263       .  A
O1226     Zr1234   2.445       .  S
O1226      C1241   1.286       .  A
O1227     Zr1232   2.387       .  S
O1227     Zr1234   2.351       .  S
O1228     Zr1233   2.394       .  S
O1228     Zr1234   2.375       .  S
O1228      H1263   0.966       .  S
O1229     Zr1232   2.406       .  S
O1229     Zr1249   2.391       .  S
O1229      H1266   0.972       .  S
O1230     Zr1233   2.368       .  S
O1230     Zr1249   2.381       .  S
Zr1231     O1256   2.437       .  S
Zr1231     O1250   2.489       .  S
Zr1231     O1258   2.468       .  S
Zr1231     O1246   2.560       .  S
Zr1231     O1237   2.431       .  S
Zr1231     O1238   2.400       .  S
Zr1231     O1239   2.376       .  S
Zr1231     O1240   2.432       .  S
Zr1232     O1251   2.441       .  S
Zr1232     O1244   2.433       .  S
Zr1232     O1245   2.391       .  S
Zr1232     O1238   2.403       .  S
Zr1232     O1239   2.379       .  S
Zr1233     O1235   2.434       .  S
Zr1233     O1257   2.437       .  S
Zr1233     O1259   2.415       .  S
Zr1233     O1237   2.418       .  S
Zr1233     O1240   2.414       .  S
Zr1234     O1260   2.435       .  S
Zr1234     O1237   2.382       .  S
Zr1234     O1238   2.399       .  S
O1235      H1272   0.990       .  S
O1236      H1267   0.990       .  S
O1236      H1281   0.990       .  S
O1238      H1264   0.962       .  S
O1239     Zr1249   2.412       .  S
O1240     Zr1249   2.383       .  S
O1240      H1265   0.966       .  S
C1241      C1468   1.493       .  S
C1242      C1448   1.495       .  S
C1243      C1528   1.412       .  S
O1244      H1280   0.990       .  S
O1245      C1247   1.274       .  A
O1246      C1247   1.308       .  A
O1248     Zr1249   2.443       .  S
O1248      H1277   0.990       .  S
Zr1249     O1252   2.435       .  S
Zr1249     O1253   2.440       .  S
Zr1249     O1254   2.395       .  S
O1250      C1255   1.289       .  A
O1251      H1268   0.989       .  S
O1251      H1283   0.989       .  S
O1252      H1269   0.990       .  S
O1253      H1273   0.990       .  S
O1253      H1282   0.989       .  S
O1254      C1255   1.263       .  A
C1255      C1438   1.476       .  S
O1256      H1275   0.990       .  S
O1257      H1271   0.990       .  S
O1257      H1278   0.990       .  S
O1258      C1262   1.294       .  A
O1259      C1262   1.284       .  A
O1261      H1274   0.990       .  S
C1262      C1521   1.484       .  S
Zr1285     O1287   2.475       .  S
Zr1285     O1288   2.467   1_565  S
Zr1285     O1293   2.415       .  S
Zr1285     O1294   2.395       .  S
O1286      H1342   0.990       .  S
O1286      H1350   0.990       .  S
O1287      C1307   1.288       .  A
O1288      C1309   1.292   1_545  A
O1289     Zr1299   2.406       .  S
O1289      C1308   1.277       .  A
O1290     Zr1298   2.415       .  S
O1290      C1309   1.283   1_554  A
O1291      C1308   1.302       .  A
O1292     Zr1300   2.407       .  S
O1292      C1307   1.268       .  A
O1293     Zr1298   2.411   1_556  S
O1293     Zr1300   2.377       .  S
O1294     Zr1300   2.401       .  S
O1294      H1329   0.963       .  S
O1295     Zr1315   2.395       .  S
O1295      H1332   0.964       .  S
O1296     Zr1299   2.392       .  S
O1296     Zr1315   2.405   1_556  S
Zr1297     O1322   2.449       .  S
Zr1297     O1316   2.461   1_565  S
Zr1297     O1324   2.375       .  S
Zr1297     O1312   2.385       .  S
Zr1297     O1303   2.430   1_554  S
Zr1297     O1304   2.426       .  S
Zr1297     O1305   2.376       .  S
Zr1298     O1317   2.434       .  S
Zr1298     O1310   2.435       .  S
Zr1298     O1311   2.486       .  S
Zr1298     O1304   2.400       .  S
Zr1298     O1305   2.403       .  S
Zr1299     O1301   2.428       .  S
Zr1299     O1306   2.379   1_556  S
Zr1300     O1326   2.435       .  S
Zr1300     O1327   2.436       .  S
Zr1300     O1302   2.435       .  S
Zr1300     O1303   2.375       .  S
Zr1300     O1304   2.393   1_556  S
O1301      H1338   0.990       .  S
O1302      H1333   0.991       .  S
O1302      H1347   0.990   1_556  S
O1304      H1330   0.965       .  S
O1306     Zr1315   2.369       .  S
O1306      H1331   0.964       .  S
C1307      C1451   1.485       .  S
C1308      C1491   1.502       .  S
C1309      C1418   1.483   1_565  S
O1310      H1346   0.990       .  S
O1311      C1313   1.282       .  A
O1312      C1313   1.261       .  A
C1313      C1441   1.491       .  S
O1314     Zr1315   2.440       .  S
O1314      H1343   0.990       .  S
Zr1315     O1318   2.437       .  S
Zr1315     O1319   2.438       .  S
Zr1315     O1320   2.450       .  S
O1317      H1334   0.990       .  S
O1317      H1349   0.990   1_565  S
O1318      H1335   0.990       .  S
O1319      H1339   0.990       .  S
O1319      H1348   0.990       .  S
O1320      C1321   1.288       .  A
C1321      C1481   1.501       .  S
O1322      H1341   0.990       .  S
O1322      H1345   0.989       .  S
O1323      H1337   0.990       .  S
O1323      H1344   0.990       .  S
O1324      C1328   1.260       .  A
O1325      C1328   1.271       .  A
O1326      H1336   0.990       .  S
O1327      H1340   0.990   1_556  S
C1328      C1431   1.416       .  S
Zr1351     O1352   2.451       .  S
Zr1351     O1353   2.436       .  S
Zr1351     O1354   2.413       .  S
Zr1351     O1357   2.388       .  S
Zr1351     O1359   2.421       .  S
Zr1351     O1360   2.393       .  S
Zr1351     O1361   2.468       .  S
Zr1351     O1362   2.394       .  S
O1352      H1408   0.989       .  S
O1352      H1416   0.990       .  S
O1353      C1373   1.286       .  A
O1355     Zr1365   2.513       .  S
O1355      C1374   1.290       .  A
O1356     Zr1364   2.373   1_556  S
O1357      C1374   1.262       .  A
O1358     Zr1366   2.459       .  S
O1359     Zr1364   2.384   1_556  S
O1360     Zr1365   2.391       .  S
O1360      H1395   0.966       .  S
O1361     Zr1364   2.402   1_556  S
O1361     Zr1381   2.385   1_556  S
O1361      H1398   0.971       .  S
O1362     Zr1365   2.371       .  S
O1362     Zr1381   2.380   1_556  S
Zr1363     O1382   2.529       .  S
Zr1363     O1390   2.469       .  S
Zr1363     O1378   2.569       .  S
Zr1363     O1369   2.440   1_554  S
Zr1363     O1370   2.410       .  S
Zr1363     O1371   2.376       .  S
Zr1363     O1372   2.423       .  S
Zr1364     O1383   2.439       .  S
Zr1364     O1377   2.390       .  S
Zr1364     O1370   2.404       .  S
Zr1364     O1371   2.387       .  S
Zr1365     O1367   2.435       .  S
Zr1365     O1389   2.437       .  S
Zr1365     O1391   2.414       .  S
Zr1365     O1369   2.417       .  S
Zr1365     O1372   2.401   1_556  S
Zr1366     O1392   2.435       .  S
Zr1366     O1393   2.435       .  S
Zr1366     O1368   2.437       .  S
O1367      H1404   0.990       .  S
O1368      H1399   0.990       .  S
O1368      H1413   0.990       .  S
O1371     Zr1381   2.405       .  S
O1372     Zr1381   2.396       .  S
O1372      H1397   0.966       .  S
C1374      C1511   1.492       .  S
C1375      C1428   1.409       .  S
O1376      H1412   0.990       .  S
O1377      C1379   1.276       .  A
O1378      C1379   1.310       .  A
O1380     Zr1381   2.441   1_556  S
O1380      H1409   0.991   1_556  S
Zr1381     O1384   2.439       .  S
Zr1381     O1385   2.439   1_554  S
Zr1381     O1386   2.370       .  S
O1382      C1387   1.296       .  A
O1383      H1400   0.990   1_655  S
O1383      H1415   0.988       .  S
O1384      H1401   0.989       .  S
O1385      H1405   0.990   1_556  S
O1385      H1414   0.990       .  S
O1386      C1387   1.259       .  A
C1387      C1501   1.492       .  S
O1388      H1407   0.990   1_545  S
O1388      H1411   0.990       .  S
O1389      H1403   0.990       .  S
O1389      H1410   0.990       .  S
O1390      C1394   1.294       .  A
O1391      C1394   1.284   1_556  A
O1392      H1402   0.990       .  S
O1393      H1406   0.990   1_556  S
C1394      C1421   1.484   1_554  S
C1417      C1418   1.410   1_564  A
C1417      H1423   1.083       .  S
C1419      C1420   1.396       .  A
C1419      H1424   1.083       .  S
C1420      C1421   1.409       .  A
C1420      H1425   1.083       .  S
C1421      C1422   1.404   1_556  A
C1427      C1428   1.397       .  A
C1427      C1432   1.382   1_556  A
C1427      H1433   1.081   1_556  S
C1428      C1429   1.392       .  A
C1430      C1431   1.395   1_556  A
C1430      H1435   1.084       .  S
C1432      H1436   1.084       .  S
C1437      C1438   1.412       .  A
C1437      C1442   1.412       .  A
C1437      H1443   1.083       .  S
C1438      C1439   1.396       .  A
C1439      C1440   1.391       .  A
C1439      H1444   1.084       .  S
C1440      C1441   1.412       .  A
C1440      H1445   1.083       .  S
C1441      C1442   1.406       .  A
C1442      H1446   1.083       .  S
C1447      C1448   1.408       .  A
C1447      C1452   1.383       .  A
C1447      H1453   1.082       .  S
C1448      C1449   1.407       .  A
C1449      C1450   1.419       .  A
C1449      H1454   1.082       .  S
C1450      C1451   1.417       .  A
C1450      H1455   1.083       .  S
C1451      C1452   1.394       .  A
C1452      H1456   1.082       .  S
C1457      C1458   1.421       .  A
C1457      C1462   1.414       .  A
C1457      H1463   1.083       .  S
C1458      C1459   1.401       .  A
C1459      C1460   1.413       .  A
C1460      C1461   1.421       .  A
C1460      H1465   1.083       .  S
C1461      C1462   1.401       .  A
C1462      H1466   1.083       .  S
C1467      C1472   1.405       .  A
C1469      C1470   1.403   1_455  A
C1469      H1474   1.083       .  S
C1470      C1471   1.409       .  A
C1471      C1472   1.407       .  A
C1472      H1476   1.083       .  S
C1477      C1478   1.411       .  A
C1477      C1482   1.411       .  A
C1477      H1483   1.083       .  S
C1478      C1479   1.408       .  A
C1479      C1480   1.403       .  A
C1479      H1484   1.083       .  S
C1480      C1481   1.408       .  A
C1480      H1485   1.083       .  S
C1481      C1482   1.410       .  A
C1482      H1486   1.083       .  S
C1487      C1488   1.405       .  A
C1487      C1492   1.416       .  A
C1487      H1493   1.083       .  S
C1488      C1489   1.415       .  A
C1489      C1490   1.411       .  A
C1489      H1494   1.083       .  S
C1490      C1491   1.404       .  A
C1490      H1495   1.083       .  S
C1491      C1492   1.415       .  A
C1492      H1496   1.083       .  S
C1497      C1498   1.411       .  A
C1497      C1502   1.408       .  A
C1497      H1503   1.082       .  S
C1498      C1499   1.391       .  A
C1499      C1500   1.394       .  A
C1499      H1504   1.083       .  S
C1500      C1501   1.418       .  A
C1500      H1505   1.082       .  S
C1501      C1502   1.400       .  A
C1502      H1506   1.083       .  S
C1507      C1508   1.393       .  A
C1507      C1512   1.382       .  A
C1507      H1513   1.081       .  S
C1508      C1509   1.416       .  A
C1509      C1510   1.418       .  A
C1509      H1514   1.083       .  S
C1510      C1511   1.406       .  A
C1510      H1515   1.082       .  S
C1511      C1512   1.407       .  A
C1512      H1516   1.082       .  S
C1517      C1518   1.410       .  A
C1517      C1522   1.399       .  A
C1518      C1519   1.403       .  A
C1519      C1520   1.396       .  A
C1519      H1524   1.083       .  S
C1520      C1521   1.409       .  A
C1520      H1525   1.083       .  S
C1521      C1522   1.404       .  A
C1522      H1526   1.083       .  S
C1527      C1528   1.393   1_545  A
C1527      H1533   1.081   1_545  S
C1529      C1530   1.382       .  A
C1529      H1534   1.082       .  S
C1530      C1531   1.397       .  A
C1530      H1535   1.084       .  S
C1531      C1532   1.395       .  A
