geometry optimzed in LAMMPS
_audit_creation_date              2020-12-01 
_audit_creation_method            'lammps2cif' 
_symmetry_space_group_name_H-M    'P1' 
_symmetry_Int_Tables_number       1 
_symmetry_cell_setting            triclinic 
loop_ 
_symmetry_equiv_pos_as_xyz 
  x,y,z 
_cell_length_a                    34.14836511 
_cell_length_b                    34.01747656133376 
_cell_length_c                    26.712642724079597 
_cell_angle_alpha                 90.05040983538669 
_cell_angle_beta                  89.87071215321997 
_cell_angle_gamma                 88.45520759251158 
loop_ 
_atom_site_label 
_atom_site_type_symbol 
_atom_site_fract_x 
_atom_site_fract_y 
_atom_site_fract_z 
_atom_site_charge 
O1          O  0.92980917  0.95261786  0.22462756    -0.81500
O2          O  0.05355132  0.08048383  0.17450341    -0.66200
O3          O  0.00212968  0.98266584  0.19487617    -1.12800
C4          C  0.02199389  0.01448826  0.36712232     1.05400
O5          O  0.09963810  0.06032875  0.22752107    -0.79400
O6          O  0.09699270  0.99818963  0.28994107    -0.67000
Ni7        Ni  0.95358141  0.97109968  0.16405324     1.34900
C8          C  0.08600579  0.96364043  0.28030388     0.84100
O9          O  0.02392271  0.02655005  0.11074137    -0.80000
O10         O  0.97258950  0.98734449  0.10015776    -0.90200
C11         C  0.08763407  0.08358768  0.19328606     0.83700
O12         O  0.92895337  0.02089432  0.17568866    -0.68400
O13         O  0.04709862  0.03901673  0.35185351    -0.87700
C14         C  0.94109562  0.05562420  0.18034958     0.84500
C15         C  0.99997590  0.00818269  0.08293119     1.06100
H16         H  0.00580440  0.05561884  0.26399792     0.37900
O17         O  0.02513963  0.03582351  0.25410474    -1.10400
O18         O  0.05119989  0.95636772  0.26747564    -0.67000
Ni19       Ni  0.00267514  0.98617810  0.26626254     1.26300
O20         O  0.97734362  0.06364208  0.18115587    -0.67300
O21         O  0.00368014  0.99176981  0.33775313    -0.79600
C22         C  0.94518412  0.92968452  0.25688355     0.83900
O23         O  0.97858617  0.93659276  0.27492150    -0.66700
Ni24       Ni  0.07173832  0.04891864  0.28838118     1.27400
Ni25       Ni  0.02560694  0.03223747  0.18253231     1.26100
H26         H  0.02064290  0.96231906  0.18427210     0.38400
O27         O  0.91232206  0.95965404  0.71864023    -0.81500
O28         O  0.04182938  0.08204738  0.67645954    -0.66200
O29         O  0.98777623  0.98550916  0.69417751    -1.12800
C30         C  0.01195047  0.01320511  0.86599183     1.05400
O31         O  0.08855521  0.05506787  0.72287210    -0.79400
O32         O  0.08374872  0.99132479  0.78182329    -0.67000
Ni33       Ni  0.94120759  0.97376654  0.65914252     1.34900
C34         C  0.06874548  0.95790928  0.77607094     0.84100
O35         O  0.01163667  0.03044126  0.61140500    -0.80000
O36         O  0.96590801  0.98568746  0.59633782    -0.90200
C37         C  0.07706989  0.08132506  0.69201652     0.83700
O38         O  0.91758456  0.02492639  0.66213996    -0.68400
O39         O  0.04013207  0.03350614  0.84941213    -0.87700
C40         C  0.92886095  0.05939892  0.67180428     0.84500
C41         C  0.99212565  0.00916645  0.58160016     1.06100
H42         H  0.99625456  0.05777859  0.76546205     0.37900
O43         O  0.01335990  0.03641784  0.75432406    -1.10400
O44         O  0.03244483  0.95393217  0.76832066    -0.67000
Ni45       Ni  0.98702743  0.98864538  0.76578655     1.26300
O46         O  0.96447239  0.06677668  0.68225418    -0.67300
O47         O  0.98864940  0.99430195  0.83769930    -0.79600
C48         C  0.92422672  0.93768276  0.75434100     0.83900
O49         O  0.95788636  0.94164390  0.77349099    -0.66700
Ni50       Ni  0.06266092  0.04379756  0.78512567     1.27400
Ni51       Ni  0.01262747  0.03451854  0.68304874     1.26100
H52         H  0.00656585  0.96516046  0.68442770     0.38400
O53         O  0.22627143  0.34799222  0.11820681    -0.81500
O54         O  0.33599195  0.20521907  0.06432887    -0.66200
O55         O  0.24380712  0.26982145  0.08782497    -1.12800
C56         C  0.26686671  0.24191013  0.25902949     1.05400
O57         O  0.31707864  0.16029923  0.11925736    -0.79400
O58         O  0.24779933  0.17038569  0.16562769    -0.67000
Ni59       Ni  0.23560245  0.31939990  0.05641023     1.34900
C60         C  0.21485360  0.18826427  0.16187240     0.84100
O61         O  0.28406755  0.24268668  0.00221103    -0.80000
O62         O  0.24292698  0.29489334  0.99238742    -0.90200
C63         C  0.33776067  0.17034004  0.08184661     0.83700
O64         O  0.28846920  0.33628128  0.05656576    -0.68400
O65         O  0.28340594  0.21011872  0.24304876    -0.87700
C66         C  0.32197241  0.32020239  0.06417306     0.84500
C67         C  0.26311837  0.26596548  0.97472503     1.06100
H68         H  0.31604856  0.25302797  0.15670942     0.37900
O69         O  0.29399479  0.23786555  0.14619712    -1.10400
O70         O  0.21129714  0.22572076  0.16133062    -0.67000
Ni71       Ni  0.24734772  0.26910938  0.15883613     1.26300
O72         O  0.32629142  0.28345666  0.07318160    -0.67300
O73         O  0.25293021  0.26832686  0.22996351    -0.79600
C74         C  0.20240294  0.33826634  0.15234511     0.83900
O75         O  0.20203735  0.30299196  0.16769052    -0.66700
Ni76       Ni  0.29929036  0.18799533  0.17883394     1.27400
Ni77       Ni  0.29056495  0.23952554  0.07428177     1.26100
H78         H  0.22207162  0.25401204  0.07785599     0.38400
O79         O  0.18610478  0.33771228  0.60794771    -0.81500
O80         O  0.31801093  0.20675862  0.55982482    -0.66200
O81         O  0.22364946  0.26486483  0.58993731    -1.12800
C82         C  0.25758213  0.24049334  0.75836880     1.05400
O83         O  0.31442614  0.16358931  0.62191098    -0.79400
O84         O  0.23956996  0.16983564  0.65524879    -0.67000
Ni85       Ni  0.21526803  0.31332737  0.55403926     1.34900
C86         C  0.20576775  0.18556337  0.66141010     0.84100
O87         O  0.25964202  0.23363635  0.50409191    -0.80000
O88         O  0.24059038  0.29571476  0.49246389    -0.90200
C89         C  0.32866152  0.17478453  0.58050734     0.83700
O90         O  0.26250008  0.33402872  0.57905335    -0.68400
O91         O  0.26599795  0.20678228  0.74022136    -0.87700
C92         C  0.29680057  0.31892434  0.57469493     0.84500
C93         C  0.25114990  0.26215638  0.47527298     1.06100
H94         H  0.30329113  0.25388037  0.65129127     0.37900
O95         O  0.28085751  0.23807872  0.64433896    -1.10400
O96         O  0.20102979  0.22234029  0.67070714    -0.67000
Ni97       Ni  0.23430218  0.26770609  0.66089523     1.26300
O98         O  0.30279876  0.28240511  0.56555248    -0.67300
O99         O  0.24750159  0.26942047  0.73057509    -0.79600
C100        C  0.17535662  0.32956998  0.65223553     0.83900
O101        O  0.18884031  0.30001416  0.67639673    -0.66700
Ni102      Ni  0.28837542  0.18861153  0.67777132     1.27400
Ni103      Ni  0.27107034  0.23616878  0.57392179     1.26100
H104        H  0.20163147  0.24833095  0.58361234     0.38400
O105        O  0.31348131  0.66353140  0.36433526    -0.81500
O106        O  0.19813740  0.80547483  0.31726413    -0.66200
O107        O  0.29065778  0.74101730  0.33585242    -1.12800
C108        C  0.26473027  0.77064870  0.50816380     1.05400
O109        O  0.22247594  0.85088728  0.36636654    -0.79400
O110        O  0.28699395  0.84070072  0.42183995    -0.67000
Ni111      Ni  0.29566450  0.69070262  0.30416606     1.34900
C112        C  0.31999840  0.82442058  0.41211663     0.84100
O113        O  0.24744521  0.76966984  0.25288648    -0.80000
O114        O  0.27975906  0.71234171  0.23979652    -0.90200
C115        C  0.19829967  0.84063791  0.33303176     0.83700
O116        O  0.24393214  0.67349026  0.31742387    -0.68400
O117        O  0.24527431  0.80044591  0.49183510    -0.87700
C118        C  0.21107460  0.69146000  0.32252411     0.84500
C119        C  0.26189500  0.74335429  0.22367345     1.06100
H120        H  0.22029179  0.75796693  0.40727604     0.37900
O121        O  0.24180617  0.77361773  0.39604951    -1.10400
O122        O  0.32453769  0.78727097  0.40652372    -0.67000
Ni123      Ni  0.28878599  0.74334928  0.40779474     1.26300
O124        O  0.20775018  0.72880009  0.32467480    -0.67300
O125        O  0.28380959  0.74646458  0.47984151    -0.79600
C126        C  0.33504746  0.67415687  0.40064116     0.83900
O127        O  0.33432557  0.70950019  0.41632760    -0.66700
Ni128      Ni  0.23468089  0.82346972  0.42771338     1.27400
Ni129      Ni  0.24371451  0.77195122  0.32461190     1.26100
H130        H  0.31240111  0.75614607  0.32417283     0.38400
O131        O  0.30936956  0.66210759  0.85501718    -0.81500
O132        O  0.18363598  0.79950371  0.80963431    -0.66200
O133        O  0.27710679  0.73812238  0.83485333    -1.12800
C134        C  0.24859894  0.76124375  0.00614379     1.05400
O135        O  0.19220223  0.84251820  0.87118251    -0.79400
O136        O  0.26495252  0.83440451  0.90896098    -0.67000
Ni137      Ni  0.28404924  0.68895895  0.80004757     1.34900
C138        C  0.29858393  0.81751555  0.90898802     0.84100
O139        O  0.24033963  0.77042748  0.75071112    -0.80000
O140        O  0.26228679  0.70894439  0.73838631    -0.90200
C141        C  0.17614851  0.83229942  0.83051746     0.83700
O142        O  0.23510929  0.66996697  0.82176522    -0.68400
O143        O  0.23498185  0.79404546  0.98992076    -0.87700
C144        C  0.20146767  0.68667107  0.82041295     0.84500
C145        C  0.25122521  0.74243926  0.72183558     1.06100
H146        H  0.20004267  0.75000903  0.89994884     0.37900
O147        O  0.22224415  0.76597177  0.89225434    -1.10400
O148        O  0.30301298  0.78037110  0.91297117    -0.67000
Ni149      Ni  0.26921751  0.73588279  0.90592251     1.26300
O150        O  0.19668227  0.72355540  0.81344819    -0.67300
O151        O  0.25997583  0.73378236  0.97676668    -0.79600
C152        C  0.32469563  0.67259733  0.89599980     0.83900
O153        O  0.31540412  0.70478224  0.91732341    -0.66700
Ni154      Ni  0.21517917  0.81498221  0.92737801     1.27400
Ni155      Ni  0.23014004  0.76825211  0.82115258     1.26100
H156        H  0.29933358  0.75400739  0.82703049     0.38400
O157        O  0.59679513  0.03962015  0.95748035    -0.81500
O158        O  0.46247344  0.91951320  0.91014786    -0.66200
O159        O  0.52189636  0.01233809  0.93106317    -1.12800
C160        C  0.49912247  0.97830505  0.10254407     1.05400
O161        O  0.41853501  0.94735761  0.96041261    -0.79400
O162        O  0.42609630  0.00544933  0.02872599    -0.67000
Ni163      Ni  0.57105171  0.01967033  0.89862016     1.34900
C164        C  0.44029981  0.03900793  0.02073353     0.84100
O165        O  0.49532572  0.97043367  0.84657464    -0.80000
O166        O  0.55066343  0.00336881  0.83488375    -0.90200
C167        C  0.42775684  0.92167080  0.92753565     0.83700
O168        O  0.59208130  0.96832016  0.91332045    -0.68400
O169        O  0.47167891  0.95683707  0.08636214    -0.87700
C170        C  0.57715446  0.93460344  0.91752375     0.84500
C171        C  0.52077749  0.98591288  0.81832235     1.06100
H172        H  0.51152819  0.93929254  0.99908571     0.37900
O173        O  0.49428511  0.96095938  0.98945433    -1.10400
O174        O  0.47549444  0.04281543  0.00614274    -0.67000
Ni175      Ni  0.52106046  0.00767549  0.00281055     1.26300
O176        O  0.54024823  0.92940831  0.91595394    -0.67300
O177        O  0.51935177  0.00048504  0.07436759    -0.79600
C178        C  0.58395371  0.05877218  0.99535836     0.83900
O179        O  0.55019852  0.05362263  0.01343142    -0.66700
Ni180      Ni  0.44619431  0.95250066  0.02256505     1.27400
Ni181      Ni  0.49434016  0.96485501  0.91815453     1.26100
H182        H  0.50496182  0.03419923  0.92127178     0.38400
O183        O  0.60340374  0.94207140  0.45937532    -0.81500
O184        O  0.47059402  0.05509429  0.51127201    -0.66200
O185        O  0.52773470  0.95979183  0.48935872    -1.12800
C186        C  0.50510516  0.98869309  0.31728423     1.05400
O187        O  0.42508842  0.04116618  0.45535995    -0.79400
O188        O  0.43159406  0.97382142  0.40109793    -0.67000
Ni189      Ni  0.57619910  0.94997230  0.52188887     1.34900
C190        C  0.44483531  0.93888401  0.40794542     0.84100
O191        O  0.50173219  0.00120819  0.57387954    -0.80000
O192        O  0.55137182  0.95702508  0.58623854    -0.90200
C193        C  0.43692380  0.06097869  0.49259936     0.83700
O194        O  0.59595039  0.00216023  0.52528371    -0.68400
O195        O  0.47726897  0.01140863  0.33252283    -0.87700
C196        C  0.58080303  0.03626757  0.51857966     0.84500
C197        C  0.52349373  0.97958413  0.60228366     1.06100
H198        H  0.51874119  0.03267730  0.42122071     0.37900
O199        O  0.50090610  0.01229939  0.43037651    -1.10400
O200        O  0.48122670  0.93108454  0.41534462    -0.67000
Ni201      Ni  0.52779602  0.96314998  0.41793933     1.26300
O202        O  0.54516469  0.04130997  0.50605659    -0.67300
O203        O  0.52706197  0.96815017  0.34627108    -0.79600
C204        C  0.59412132  0.91654175  0.42696041     0.83900
O205        O  0.55926640  0.91586316  0.41031594    -0.66700
Ni206      Ni  0.45350299  0.02470737  0.39587999     1.27400
Ni207      Ni  0.50042533  0.00786468  0.50204770     1.26100
H208        H  0.51081138  0.93884931  0.49927151     0.38400
O209        O  0.83693736  0.81825753  0.38429520    -0.81500
O210        O  0.70203109  0.69684469  0.42651589    -0.66200
O211        O  0.79708019  0.74885317  0.39837607    -1.12800
C212        C  0.75790501  0.73359474  0.22905071     1.05400
O213        O  0.71146889  0.65208054  0.36705970    -0.79400
O214        O  0.77968794  0.65646236  0.31622834    -0.67000
Ni215      Ni  0.80594875  0.79584349  0.43621488     1.34900
C216        C  0.81342353  0.67117509  0.31334014     0.84100
O217        O  0.76090882  0.71863995  0.48314818    -0.80000
O218        O  0.77857564  0.77975896  0.49600363    -0.90200
C219        C  0.69389975  0.66443407  0.40624613     0.83700
O220        O  0.75992111  0.82038832  0.40954653    -0.68400
O221        O  0.74299162  0.70209203  0.24516566    -0.87700
C222        C  0.72527952  0.80803209  0.41300721     0.84500
C223        C  0.76819867  0.74660545  0.51257703     1.06100
H224        H  0.71725757  0.74507123  0.33794007     0.37900
O225        O  0.73936973  0.72734171  0.34371291    -1.10400
O226        O  0.81851184  0.70814636  0.31427739    -0.67000
Ni227      Ni  0.78583339  0.75449906  0.32770582     1.26300
O228        O  0.71856148  0.77204647  0.42315985    -0.67300
O229        O  0.77284808  0.75890319  0.25803602    -0.79600
C230        C  0.84656239  0.81091623  0.33927222     0.83900
O231        O  0.83131518  0.78399554  0.31343602    -0.66700
Ni232      Ni  0.72879748  0.67980955  0.30849377     1.27400
Ni233      Ni  0.74933949  0.72335245  0.41365770     1.26100
H234        H  0.81888666  0.73063716  0.40358697     0.38400
O235        O  0.79745379  0.83261486  0.86922628    -0.81500
O236        O  0.68345598  0.69797154  0.92331909    -0.66200
O237        O  0.77656553  0.75634425  0.89975322    -1.12800
C238        C  0.75181650  0.73007518  0.72856818     1.05400
O239        O  0.69975605  0.65213559  0.86708955    -0.79400
O240        O  0.76877983  0.65706469  0.81968083    -0.67000
Ni241      Ni  0.78471770  0.80586668  0.93086555     1.34900
C242        C  0.80231555  0.67166664  0.82536986     0.84100
O243        O  0.73649832  0.73091776  0.98436996    -0.80000
O244        O  0.77383292  0.78367402  0.99532187    -0.90200
C245        C  0.67997590  0.66362547  0.90501426     0.83700
O246        O  0.73253024  0.82680136  0.92647383    -0.68400
O247        O  0.73320760  0.70051718  0.74438249    -0.87700
C248        C  0.69898872  0.81195854  0.92194995     0.84500
C249        C  0.75483443  0.75473432  0.01240428     1.06100
H250        H  0.70398222  0.74558862  0.83134950     0.37900
O251        O  0.72544276  0.72826187  0.84130768    -1.10400
O252        O  0.80751389  0.70866405  0.82717707    -0.67000
Ni253      Ni  0.77322890  0.75532477  0.82869838     1.26300
O254        O  0.69438142  0.77511574  0.91591853    -0.67300
O255        O  0.76798087  0.75438126  0.75757604    -0.79600
C256        C  0.82082952  0.82042207  0.83508213     0.83900
O257        O  0.81977890  0.78511860  0.81978149    -0.66700
Ni258      Ni  0.71770879  0.67917348  0.80807296     1.27400
Ni259      Ni  0.72947459  0.72896290  0.91300592     1.26100
H260        H  0.79819765  0.73935102  0.91006363     0.38400
O261        O  0.71041198  0.15181178  0.12459390    -0.81500
O262        O  0.83152476  0.28129574  0.18089295    -0.66200
O263        O  0.73838744  0.22696993  0.14996235    -1.12800
C264        C  0.76604419  0.24950117  0.98139943     1.05400
O265        O  0.83414381  0.31933107  0.11277240    -0.79400
O266        O  0.75726654  0.32123571  0.08629524    -0.67000
Ni267      Ni  0.72597224  0.17949551  0.18415059     1.34900
C268        C  0.72293166  0.30827898  0.08085729     0.84100
O269        O  0.77273455  0.25604958  0.23680363    -0.80000
O270        O  0.73768116  0.20212963  0.24804552    -0.90200
C271        C  0.84477317  0.31023463  0.15683759     0.83700
O272        O  0.77691592  0.15546923  0.17928700    -0.68400
O273        O  0.77732044  0.28204011  0.99898037    -0.87700
C274        C  0.81109946  0.16919418  0.18003140     0.84500
C275        C  0.75409355  0.23258746  0.26491377     1.06100
H276        H  0.81773949  0.23131082  0.08886992     0.37900
O277        O  0.79587067  0.24922655  0.09534587    -1.10400
O278        O  0.71714246  0.27217924  0.07119621    -0.67000
Ni279      Ni  0.74809498  0.22387717  0.07983971     1.26300
O280        O  0.81731929  0.20589579  0.17719199    -0.67300
O281        O  0.75920320  0.22058565  0.00976211    -0.79600
C282        C  0.69266054  0.16484021  0.08596520     0.83900
O283        O  0.70060845  0.19779738  0.06722139    -0.66700
Ni284      Ni  0.80402332  0.29741440  0.05964185     1.27400
Ni285      Ni  0.78535760  0.25299102  0.16649399     1.26100
H286        H  0.71679951  0.24523981  0.15629310     0.38400
O287        O  0.69791517  0.15213386  0.62639114    -0.81500
O288        O  0.81381144  0.28820457  0.67413997    -0.66200
O289        O  0.72096967  0.22903752  0.65347729    -1.12800
C290        C  0.74374197  0.25685598  0.48136301     1.05400
O291        O  0.79714497  0.33437924  0.61903202    -0.79400
O292        O  0.72619141  0.32852602  0.57710739    -0.67000
Ni293      Ni  0.71525616  0.17923393  0.68583613     1.34900
C294        C  0.69287464  0.31321681  0.58165273     0.84100
O295        O  0.76294291  0.25616247  0.73692734    -0.80000
O296        O  0.73105576  0.20024641  0.74966783    -0.90200
C297        C  0.81847124  0.32189948  0.65484616     0.83700
O298        O  0.76671692  0.15899176  0.67295941    -0.68400
O299        O  0.75985141  0.28754663  0.49799925    -0.87700
C300        C  0.79972741  0.17476517  0.66796396     0.84500
C301        C  0.74882320  0.23025597  0.76576639     1.06100
H302        H  0.79276939  0.24171380  0.58296051     0.37900
O303        O  0.77093954  0.25835592  0.59366013    -1.10400
O304        O  0.68813993  0.27603036  0.58064130    -0.67000
Ni305      Ni  0.72387581  0.23001627  0.58173513     1.26300
O306        O  0.80373086  0.21193216  0.66666512    -0.67300
O307        O  0.72936020  0.23107385  0.51014407    -0.79600
C308        C  0.67767685  0.16317186  0.58872934     0.83900
O309        O  0.67841241  0.19836198  0.57273319    -0.66700
Ni310      Ni  0.77702675  0.30795607  0.56107206     1.27400
Ni311      Ni  0.76794367  0.25749103  0.66536094     1.26100
H312        H  0.69907441  0.24554562  0.66426724     0.38400
O313        O  0.42118850  0.54524209  0.03379103    -0.81500
O314        O  0.56031025  0.41900681  0.06963270    -0.66200
O315        O  0.49749205  0.51382981  0.05421444    -1.12800
C316        C  0.51442305  0.48168783  0.88088705     1.05400
O317        O  0.60148688  0.44498508  0.01619681    -0.79400
O318        O  0.59005180  0.50487432  0.95173680    -0.67000
Ni319      Ni  0.44935423  0.52216129  0.08977864     1.34900
C320        C  0.57546218  0.53877542  0.96149946     0.84100
O321        O  0.52879211  0.47055553  0.13595914    -0.80000
O322        O  0.47186207  0.50284715  0.15132768    -0.90200
C323        C  0.59444969  0.42017439  0.05031542     0.83700
O324        O  0.42885912  0.47224021  0.07317966    -0.68400
O325        O  0.54281680  0.45897739  0.89464232    -0.87700
C326        C  0.44399946  0.43785571  0.06854075     0.84500
C327        C  0.50337063  0.48557399  0.16580178     1.06100
H328        H  0.50676789  0.44105771  0.98432325     0.37900
O329        O  0.52392580  0.46207877  0.99314230    -1.10400
O330        O  0.54033616  0.54371036  0.97682371    -0.67000
Ni331      Ni  0.49560211  0.50993993  0.98248045     1.26300
O332        O  0.48114970  0.43114613  0.06925878    -0.67300
O333        O  0.49448763  0.50368548  0.91088426    -0.79600
C334        C  0.43205566  0.56350291  0.99482776     0.83900
O335        O  0.46513266  0.55691814  0.97458713    -0.66700
Ni336      Ni  0.57086288  0.45248823  0.95655485     1.27400
Ni337      Ni  0.52665315  0.46527806  0.06439167     1.26100
H338        H  0.51425383  0.53510557  0.06336561     0.38400
O339        O  0.41559326  0.45238588  0.52084592    -0.81500
O340        O  0.54984766  0.55738022  0.47596487    -0.66200
O341        O  0.49144882  0.46545393  0.49336427    -1.12800
C342        C  0.51087189  0.49063603  0.66678290     1.05400
O343        O  0.59425759  0.53806240  0.53210713    -0.79400
O344        O  0.58607108  0.47102224  0.58674005    -0.67000
Ni345      Ni  0.44367954  0.45870934  0.45940030     1.34900
C346        C  0.57211094  0.43726665  0.57852396     0.84100
O347        O  0.51895044  0.50629067  0.41031549    -0.80000
O348        O  0.46972501  0.46463934  0.39620251    -0.90200
C349        C  0.58339464  0.56002355  0.49580621     0.83700
O350        O  0.42408340  0.51181228  0.45650133    -0.68400
O351        O  0.53909718  0.51194352  0.65297156    -0.87700
C352        C  0.43844489  0.54512295  0.46527588     0.84500
C353        C  0.49813212  0.48535333  0.38109217     1.06100
H354        H  0.49992589  0.53660777  0.56391581     0.37900
O355        O  0.51762465  0.51521255  0.55450939    -1.10400
O356        O  0.53600862  0.43253581  0.56819389    -0.67000
Ni357      Ni  0.49007227  0.46772541  0.56481096     1.26300
O358        O  0.47398663  0.54849791  0.47875338    -0.67300
O359        O  0.48948150  0.47172164  0.63656336    -0.79600
C360        C  0.42374700  0.42560868  0.55249672     0.83900
O361        O  0.45818965  0.42231919  0.57024816    -0.66700
Ni362      Ni  0.56462424  0.52360662  0.59067899     1.27400
Ni363      Ni  0.51899487  0.51213151  0.48264929     1.26100
H364        H  0.50854167  0.44372397  0.48339735     0.38400
O365        O  0.10025952  0.55823671  0.26481520    -0.81500
O366        O  0.98007950  0.43422801  0.21572955    -0.66200
O367        O  0.02710326  0.53326044  0.23516954    -1.12800
C368        C  0.00052002  0.50537776  0.40671888     1.05400
O369        O  0.93096085  0.45380376  0.26360805    -0.79400
O370        O  0.92924700  0.51897852  0.31839845    -0.67000
Ni371      Ni  0.07477786  0.54542595  0.20284682     1.34900
C372        C  0.94025054  0.55349723  0.30944354     0.84100
O373        O  0.00707675  0.48821258  0.15203988    -0.80000
O374        O  0.05225002  0.53401361  0.13849520    -0.90200
C375        C  0.94573609  0.42952170  0.23232221     0.83700
O376        O  0.10042168  0.49478256  0.20390406    -0.68400
O377        O  0.97452155  0.48266754  0.38984170    -0.87700
C378        C  0.08901607  0.46011029  0.21181480     0.84500
C379        C  0.02677437  0.50998747  0.12288079     1.06100
H380        H  0.02199503  0.46140358  0.30625459     0.37900
O381        O  0.00318419  0.48117469  0.29495853    -1.10400
O382        O  0.97631940  0.56197355  0.30514150    -0.67000
Ni383      Ni  0.02532202  0.53122415  0.30678772     1.26300
O384        O  0.05364877  0.45299087  0.22296631    -0.67300
O385        O  0.02203450  0.52646376  0.37867852    -0.79600
C386        C  0.08711471  0.58244880  0.29747909     0.83900
O387        O  0.05234545  0.57997092  0.31447403    -0.66700
Ni388      Ni  0.95467195  0.46900584  0.32547205     1.27400
Ni389      Ni  0.00496561  0.48345868  0.22355999     1.26100
H390        H  0.00816297  0.55288868  0.22386782     0.38400
O391        O  0.08906515  0.55712579  0.76611052    -0.81500
O392        O  0.95897320  0.44059874  0.71405518    -0.66200
O393        O  0.01485601  0.53454708  0.73565711    -1.12800
C394        C  0.99611957  0.50469158  0.90860886     1.05400
O395        O  0.91532043  0.45414211  0.77366151    -0.79400
O396        O  0.91969712  0.51983211  0.83081544    -0.67000
Ni397      Ni  0.06464952  0.54121098  0.70485815     1.34900
C398        C  0.93049205  0.55458047  0.82147311     0.84100
O399        O  0.98807020  0.49480716  0.65201566    -0.80000
O400        O  0.04424055  0.52668519  0.64063023    -0.90200
C401        C  0.92666695  0.43414577  0.73576303     0.83700
O402        O  0.08669399  0.48946768  0.71427374    -0.68400
O403        O  0.97016481  0.48089158  0.89426404    -0.87700
C404        C  0.07071823  0.45627326  0.71364123     0.84500
C405        C  0.01412725  0.50960065  0.62371615     1.06100
H406        H  0.01007318  0.46167787  0.80290034     0.37900
O407        O  0.99066837  0.48188225  0.79490006    -1.10400
O408        O  0.96575297  0.56219518  0.80972623    -0.67000
Ni409      Ni  0.01443349  0.53128226  0.80691670     1.26300
O410        O  0.03379817  0.45260846  0.71595571    -0.67300
O411        O  0.01470814  0.52639696  0.87844073    -0.79600
C412        C  0.07543036  0.58204902  0.79747421     0.83900
O413        O  0.04085969  0.57968919  0.81433250    -0.66700
Ni414      Ni  0.94491866  0.46899673  0.83193990     1.27400
Ni415      Ni  0.98824988  0.48715939  0.72329198     1.26100
H416        H  0.99800548  0.55635721  0.72520274     0.38400
C417        C  0.04280232  0.51595941  0.53801881    -0.26900
C418        C  0.01026648  0.50709641  0.56821343    -0.15000
C419        C  0.97521408  0.49645094  0.54459955     0.35600
C420        C  0.97286609  0.49661884  0.49220208    -0.26400
C421        C  0.00495757  0.50678646  0.46206856    -0.15600
C422        C  0.04062280  0.51587666  0.48545260     0.36700
N423        N  0.07488529  0.52369766  0.45609035    -0.89900
H424        H  0.07033657  0.52309525  0.55541389     0.17800
H425        H  0.94539102  0.48889170  0.47503825     0.17800
N426        N  0.94171960  0.48565857  0.57334787    -0.88900
H427        H  0.09951113  0.52582932  0.47902208     0.35200
H428        H  0.07063582  0.55140741  0.43981694     0.40300
H429        H  0.93420957  0.45723983  0.56276601     0.39900
H430        H  0.91838278  0.50478596  0.56408221     0.34800
C431        C  0.02968346  0.53960669  0.03741835    -0.26900
C432        C  0.01960491  0.50774550  0.06794080    -0.15000
C433        C  0.00294161  0.47448689  0.04541015     0.35600
C434        C  0.99523124  0.47467817  0.99374549    -0.26400
C435        C  0.00492831  0.50666234  0.96322613    -0.15600
C436        C  0.02267487  0.53949244  0.98551302     0.36700
N437        N  0.03310671  0.57286752  0.95578444    -0.89900
H438        H  0.04258803  0.56517694  0.05424013     0.17800
H439        H  0.98227803  0.44909716  0.97701849     0.17800
N440        N  0.99466796  0.44020244  0.07463863    -0.88900
H441        H  0.04688516  0.59387897  0.97769578     0.35200
H442        H  0.00713508  0.58618126  0.94273673     0.40300
H443        H  0.02143744  0.42831521  0.08723121     0.39900
H444        H  0.98210763  0.41859243  0.05244298     0.34800
C445        C  0.50068064  0.52178666  0.74997010    -0.26900
C446        C  0.50384541  0.48732336  0.72116941    -0.15000
C447        C  0.50560990  0.45045270  0.74535910     0.35600
C448        C  0.50711903  0.44903583  0.79800245    -0.26400
C449        C  0.50575442  0.48366846  0.82672871    -0.15600
C450        C  0.50102848  0.52022133  0.80244846     0.36700
N451        N  0.49908297  0.55597532  0.83084940    -0.89900
H452        H  0.49928666  0.55018013  0.73158105     0.17800
H453        H  0.51055715  0.42089110  0.81668456     0.17800
N454        N  0.50864652  0.41483196  0.71643114    -0.88900
H455        H  0.47297352  0.57102165  0.82171700     0.35200
H456        H  0.52239444  0.57334449  0.81989453     0.40300
H457        H  0.48216736  0.41181695  0.69742886     0.39900
H458        H  0.51159303  0.39038385  0.73995311     0.34800
C459        C  0.50221388  0.44954959  0.29964281    -0.26900
C460        C  0.50618667  0.48494870  0.32634196    -0.15000
C461        C  0.51366079  0.51977997  0.29963450     0.35600
C462        C  0.51528183  0.51869214  0.24691213    -0.26400
C463        C  0.50979737  0.48358855  0.22042807    -0.15600
C464        C  0.50421500  0.44849179  0.24698296     0.36700
N465        N  0.49826336  0.41244903  0.22026274    -0.89900
H466        H  0.49645410  0.42275578  0.31996990     0.17800
H467        H  0.51910065  0.54570294  0.22618912     0.17800
N468        N  0.51743659  0.55643719  0.32580248    -0.88900
H469        H  0.49351352  0.38942108  0.24526355     0.35200
H470        H  0.52422027  0.40529734  0.20109615     0.40300
H471        H  0.49040342  0.56342893  0.34249798     0.39900
H472        H  0.52312631  0.57914683  0.30067970     0.34800
C473        C  0.85386999  0.35140934  0.72713755    -0.26900
C474        C  0.84832285  0.34863197  0.67523315    -0.15000
C475        C  0.87032829  0.37271571  0.64305859     0.35600
C476        C  0.89626855  0.39988035  0.66352265    -0.26400
C477        C  0.90058392  0.40377738  0.71545361    -0.15600
C478        C  0.87973542  0.37874148  0.74757861     0.36700
N479        N  0.88521005  0.38092991  0.80084764    -0.89900
H480        H  0.83732950  0.33280222  0.75186249     0.17800
H481        H  0.91265726  0.41863869  0.63885084     0.17800
N482        N  0.86639169  0.36935599  0.58964649    -0.88900
H483        H  0.91429936  0.37255571  0.80833384     0.35200
H484        H  0.86772374  0.36067537  0.81920221     0.40300
H485        H  0.87655408  0.34120782  0.57940501     0.39900
H486        H  0.88434829  0.38924174  0.57136740     0.34800
C487        C  0.62381910  0.33585138  0.56050843    -0.26900
C488        C  0.65862257  0.34115471  0.58746742    -0.15000
C489        C  0.66250637  0.37604567  0.61553822     0.35600
C490        C  0.63357940  0.40613165  0.61238610    -0.26400
C491        C  0.59992370  0.40236763  0.58261308    -0.15600
C492        C  0.59440961  0.36606188  0.55773625     0.36700
N493        N  0.55981201  0.36033883  0.52840313    -0.89900
H494        H  0.62049833  0.30896677  0.53934764     0.17800
H495        H  0.63760446  0.43300864  0.63331997     0.17800
N496        N  0.69623656  0.38098341  0.64689061    -0.88900
H497        H  0.55994462  0.33192408  0.51343399     0.35200
H498        H  0.56070800  0.37964688  0.49801875     0.40300
H499        H  0.69541885  0.35961744  0.67497178     0.39900
H500        H  0.69487807  0.40827692  0.66493236     0.34800
C501        C  0.76266973  0.20764941  0.90462925    -0.26900
C502        C  0.76057214  0.24536066  0.92614668    -0.15000
C503        C  0.75422109  0.27830207  0.89436596     0.35600
C504        C  0.75118015  0.27271301  0.84220625    -0.26400
C505        C  0.75327921  0.23496550  0.82090272    -0.15600
C506        C  0.75940425  0.20209479  0.85258775     0.36700
N507        N  0.76336664  0.16319632  0.83173454    -0.89900
H508        H  0.76789800  0.18229438  0.92843108     0.17800
H509        H  0.74624171  0.29795730  0.81809378     0.17800
N510        N  0.75016868  0.31726133  0.91501657    -0.88900
H511        H  0.76755931  0.14228153  0.86001550     0.35200
H512        H  0.78877463  0.16224424  0.80978331     0.40300
H513        H  0.72462619  0.31827681  0.93670873     0.39900
H514        H  0.74611339  0.33810113  0.88661397     0.34800
C515        C  0.72987209  0.21364758  0.35011941    -0.26900
C516        C  0.75056740  0.24020431  0.32005590    -0.15000
C517        C  0.76667552  0.27323154  0.34342280     0.35600
C518        C  0.76309580  0.27827539  0.39540742    -0.26400
C519        C  0.74339041  0.25120487  0.42572421    -0.15600
C520        C  0.72575730  0.21886611  0.40223431     0.36700
N521        N  0.70392372  0.19120760  0.43101124    -0.89900
H522        H  0.71659288  0.18842628  0.33298839     0.17800
H523        H  0.77651375  0.30363617  0.41205663     0.17800
N524        N  0.78673148  0.30201019  0.31483332    -0.88900
H525        H  0.69403646  0.16850890  0.40827334     0.35200
H526        H  0.67887274  0.20604606  0.44460926     0.40300
H527        H  0.81521405  0.30383973  0.32877587     0.39900
H528        H  0.77235207  0.32917653  0.32054803     0.34800
C529        C  0.88238010  0.39536684  0.23112230    -0.26900
C530        C  0.92136359  0.39689570  0.21429175    -0.15000
C531        C  0.93568863  0.36737963  0.18127686     0.35600
C532        C  0.91069766  0.33779847  0.16510349    -0.26400
C533        C  0.87170664  0.33689791  0.18158155    -0.15600
C534        C  0.85741303  0.36605939  0.21515362     0.36700
N535        N  0.81728780  0.36844544  0.23168266    -0.89900
H536        H  0.87057427  0.41770493  0.25632270     0.17800
H537        H  0.92151151  0.31601148  0.13846492     0.17800
N538        N  0.97527159  0.36743693  0.16350568    -0.88900
H539        H  0.81738253  0.36656331  0.27070287     0.35200
H540        H  0.80102064  0.34505005  0.21866116     0.40300
H541        H  0.97465101  0.36858567  0.12442069     0.39900
H542        H  0.98891168  0.34080574  0.17386862     0.34800
C543        C  0.61895002  0.35411254  0.07935510    -0.26900
C544        C  0.62694565  0.39313953  0.06671308    -0.15000
C545        C  0.66659777  0.40462019  0.06540531     0.35600
C546        C  0.69671588  0.37686965  0.07389051    -0.26400
C547        C  0.68903694  0.33696975  0.08157740    -0.15600
C548        C  0.64930453  0.32586254  0.08595064     0.36700
N549        N  0.63855560  0.28629717  0.09648694    -0.89900
H550        H  0.58885708  0.34486162  0.08114944     0.17800
H551        H  0.72664488  0.38651310  0.07132912     0.17800
N552        N  0.67757368  0.44417142  0.05499949    -0.88900
H553        H  0.65283944  0.27690036  0.12908720     0.35200
H554        H  0.64701849  0.26819333  0.06655383     0.40300
H555        H  0.66205465  0.46330051  0.07895157     0.39900
H556        H  0.67093626  0.45100243  0.01782010     0.34800
C557        C  0.87321569  0.65346455  0.80880097    -0.26900
C558        C  0.83669021  0.64372227  0.82909986    -0.15000
C559        C  0.83273392  0.60615398  0.85050021     0.35600
C560        C  0.86383950  0.57846850  0.84823047    -0.26400
C561        C  0.89977086  0.58697685  0.82515848    -0.15600
C562        C  0.90478954  0.62560536  0.80652751     0.36700
N563        N  0.94145731  0.63645569  0.78473381    -0.89900
H564        H  0.87671011  0.68245604  0.79291217     0.17800
H565        H  0.85945658  0.54980510  0.86465776     0.17800
N566        N  0.79716266  0.59597019  0.87528133    -0.88900
H567        H  0.94069769  0.66618707  0.77478033     0.35200
H568        H  0.94506574  0.62057573  0.75144558     0.40300
H569        H  0.80387358  0.58854579  0.91232092     0.39900
H570        H  0.78623365  0.57107110  0.85774215     0.34800
C571        C  0.61236698  0.64090044  0.92480813    -0.26900
C572        C  0.65314301  0.63474424  0.92796266    -0.15000
C573        C  0.66770339  0.59805925  0.94581092     0.35600
C574        C  0.64179224  0.56839517  0.95881198    -0.26400
C575        C  0.60096769  0.57362659  0.95377449    -0.15600
C576        C  0.58610516  0.61075128  0.93711270     0.36700
N577        N  0.54475649  0.61697446  0.92939742    -0.89900
H578        H  0.60103206  0.66862054  0.91013874     0.17800
H579        H  0.65391017  0.54040791  0.97163101     0.17800
N580        N  0.70889937  0.58985019  0.95046074    -0.88900
H581        H  0.53902232  0.64454224  0.91332526     0.35200
H582        H  0.53132790  0.61766226  0.96458975     0.40300
H583        H  0.72089971  0.61146058  0.97317978     0.39900
H584        H  0.72172377  0.59128155  0.91502097     0.34800
C585        C  0.76108475  0.77530352  0.59832730    -0.26900
C586        C  0.76337147  0.74152478  0.56779073    -0.15000
C587        C  0.76157652  0.70413522  0.59117595     0.35600
C588        C  0.75736996  0.70161053  0.64316707    -0.26400
C589        C  0.75553472  0.73531165  0.67353887    -0.15600
C590        C  0.75727748  0.77269135  0.65043945     0.36700
N591        N  0.75404029  0.80859781  0.67842508    -0.89900
H592        H  0.76208151  0.80428599  0.58164382     0.17800
H593        H  0.75635642  0.67270622  0.66010545     0.17800
N594        N  0.76513851  0.66800460  0.56380376    -0.88900
H595        H  0.77805048  0.81038730  0.70239797     0.35200
H596        H  0.72824104  0.80842049  0.69957006     0.40300
H597        H  0.79152700  0.66759550  0.54388187     0.39900
H598        H  0.74175175  0.66631043  0.53894950     0.34800
C599        C  0.77960165  0.77186663  0.09755902    -0.26900
C600        C  0.75467080  0.74909465  0.06789053    -0.15000
C601        C  0.73050705  0.72171038  0.09191753     0.35600
C602        C  0.73237154  0.71747563  0.14420050    -0.26400
C603        C  0.75737034  0.74013439  0.17379838    -0.15600
C604        C  0.78145850  0.76757197  0.14987300     0.36700
N605        N  0.80826072  0.79054727  0.17834276    -0.89900
H606        H  0.79844309  0.79288850  0.07986303     0.17800
H607        H  0.71357746  0.69645530  0.16199280     0.17800
N608        N  0.70388061  0.69840326  0.06357613    -0.88900
H609        H  0.82297493  0.81009608  0.15522355     0.35200
H610        H  0.82964441  0.77122900  0.19296711     0.40300
H611        H  0.68218366  0.71748745  0.04920871     0.39900
H612        H  0.68950774  0.67863603  0.08674099     0.34800
C613        C  0.84111075  0.60546159  0.28951525    -0.26900
C614        C  0.84779761  0.64337750  0.30789428    -0.15000
C615        C  0.88647420  0.65297968  0.32153238     0.35600
C616        C  0.91651471  0.62354219  0.32023318    -0.26400
C617        C  0.90900776  0.58488656  0.30498414    -0.15600
C618        C  0.87081353  0.57649201  0.28764610     0.36700
N619        N  0.86109029  0.53908181  0.26697375    -0.89900
H620        H  0.81214172  0.59785843  0.27683420     0.17800
H621        H  0.94569832  0.63057191  0.33258843     0.17800
N622        N  0.89502577  0.69198009  0.33827996    -0.88900
H623        H  0.86212698  0.51774363  0.29503718     0.35200
H624        H  0.88117376  0.53168025  0.23867097     0.40300
H625        H  0.89228908  0.71068765  0.30737820     0.39900
H626        H  0.92420066  0.69338063  0.34977034     0.34800
C627        C  0.66285951  0.63517572  0.48155444    -0.26900
C628        C  0.66431121  0.63926388  0.42933411    -0.15000
C629        C  0.63806779  0.61829322  0.39926140     0.35600
C630        C  0.61167298  0.59290200  0.42195996    -0.26400
C631        C  0.61126438  0.58763953  0.47398719    -0.15600
C632        C  0.63698187  0.60912147  0.50407540     0.36700
N633        N  0.63644276  0.60510287  0.55745958    -0.89900
H634        H  0.68233580  0.65166754  0.50492012     0.17800
H635        H  0.59167500  0.57667128  0.39882077     0.17800
N636        N  0.63802938  0.62319972  0.34579980    -0.88900
H637        H  0.63033892  0.63281189  0.57303526     0.35200
H638        H  0.66447876  0.59599674  0.56902319     0.40300
H639        H  0.62942221  0.65232678  0.33828766     0.39900
H640        H  0.61712719  0.60547893  0.32920567     0.34800
C641        C  0.65304478  0.82230274  0.40506292    -0.26900
C642        C  0.69148050  0.83655925  0.40690037    -0.15000
C643        C  0.69624193  0.87795990  0.40506592     0.35600
C644        C  0.66338573  0.90319654  0.40587178    -0.26400
C645        C  0.62541054  0.88887749  0.40940393    -0.15600
C646        C  0.61994360  0.84806949  0.40607351     0.36700
N647        N  0.58110335  0.83285035  0.40722448    -0.89900
H648        H  0.64866471  0.79088505  0.40477590     0.17800
H649        H  0.66777340  0.93464058  0.40724074     0.17800
N650        N  0.73376037  0.89583195  0.40516198    -0.88900
H651        H  0.58223564  0.80211148  0.40634056     0.35200
H652        H  0.56698569  0.84194589  0.37435871     0.40300
H653        H  0.74964016  0.88633296  0.37371176     0.39900
H654        H  0.74865912  0.88798688  0.43795172     0.34800
C655        C  0.64607128  0.06484271  0.53681158    -0.26900
C656        C  0.60575074  0.07129649  0.52828105    -0.15000
C657        C  0.58999961  0.11017687  0.53452591     0.35600
C658        C  0.61443350  0.14052772  0.55134327    -0.26400
C659        C  0.65401076  0.13295968  0.56292881    -0.15600
C660        C  0.66991602  0.09486350  0.55437399     0.36700
N661        N  0.71047537  0.08629946  0.56420629    -0.89900
H662        H  0.65920408  0.03576459  0.53167931     0.17800
H663        H  0.60205017  0.16974631  0.55786849     0.17800
N664        N  0.54902938  0.11853249  0.52629319    -0.88900
H665        H  0.72352501  0.07599313  0.53109394     0.35200
H666        H  0.71225228  0.06369027  0.59066870     0.40300
H667        H  0.54385549  0.11565762  0.48792339     0.39900
H668        H  0.54185521  0.14774571  0.53542160     0.34800
C669        C  0.51504283  0.94694141  0.68509932    -0.26900
C670        C  0.51763989  0.98177209  0.65719051    -0.15000
C671        C  0.51905490  0.01813343  0.68251844     0.35600
C672        C  0.51823380  0.01882499  0.73524804    -0.26400
C673        C  0.51622084  0.98393599  0.76319442    -0.15600
C674        C  0.51420182  0.94767797  0.73762439     0.36700
N675        N  0.51353766  0.91107070  0.76403883    -0.89900
H676        H  0.51465090  0.91886646  0.66591974     0.17800
H677        H  0.52035243  0.04663699  0.75474973     0.17800
N678        N  0.52326893  0.05396906  0.65469287    -0.88900
H679        H  0.48852826  0.91101522  0.78665077     0.35200
H680        H  0.53825458  0.90899439  0.78703065     0.40300
H681        H  0.55047240  0.05245275  0.63661729     0.39900
H682        H  0.52394090  0.07812710  0.67886857     0.34800
C683        C  0.50164859  0.94890559  0.24000597    -0.26900
C684        C  0.51037887  0.98476408  0.26267534    -0.15000
C685        C  0.51969296  0.01717677  0.23233963     0.35600
C686        C  0.51792626  0.01378776  0.18015906    -0.26400
C687        C  0.50660307  0.97866194  0.15728109    -0.15600
C688        C  0.49974724  0.94541594  0.18757669     0.36700
N689        N  0.49041448  0.90842274  0.16509012    -0.89900
H690        H  0.49475252  0.92397773  0.26337083     0.17800
H691        H  0.52360515  0.03941454  0.15749860     0.17800
N692        N  0.53090717  0.05386066  0.25358793    -0.88900
H693        H  0.48594229  0.88713055  0.19257653     0.35200
H694        H  0.51483975  0.89882269  0.14431139     0.40300
H695        H  0.55529005  0.04856687  0.27645750     0.39900
H696        H  0.50792847  0.06492014  0.27580902     0.34800
C697        C  0.66829537  0.87458007  0.95306244    -0.26900
C698        C  0.66435769  0.83990724  0.92496961    -0.15000
C699        C  0.62858448  0.83406555  0.89962685     0.35600
C700        C  0.59922703  0.86439844  0.89959565    -0.26400
C701        C  0.60487723  0.90028742  0.92453440    -0.15600
C702        C  0.63896626  0.90434281  0.95372653     0.36700
N703        N  0.64375952  0.93891821  0.98393081    -0.89900
H704        H  0.69476883  0.87874003  0.97450183     0.17800
H705        H  0.57271050  0.86074481  0.87809078     0.17800
N706        N  0.62260816  0.79814243  0.87271587    -0.88900
H707        H  0.67037963  0.93743611  0.00319254     0.35200
H708        H  0.62166137  0.93933236  0.01111499     0.40300
H709        H  0.64250285  0.79706275  0.84291308     0.39900
H710        H  0.59461456  0.79825754  0.85693769     0.34800
C711        C  0.63973242  0.11645047  0.09258708    -0.26900
C712        C  0.66300940  0.14004259  0.06196075    -0.15000
C713        C  0.65834503  0.13811608  0.00936682     0.35600
C714        C  0.63247237  0.11138388  0.98880975    -0.26400
C715        C  0.60987385  0.08726859  0.01936181    -0.15600
C716        C  0.61291781  0.09035101  0.07189016     0.36700
N717        N  0.58960515  0.06633954  0.10394775    -0.89900
H718        H  0.64268614  0.11820036  0.13291120     0.17800
H719        H  0.62984654  0.10957432  0.94844216     0.17800
N720        N  0.68024921  0.16187418  0.97570479    -0.88900
H721        H  0.59504855  0.07254893  0.14160179     0.35200
H722        H  0.59845588  0.03702429  0.09813670     0.40300
H723        H  0.71010277  0.15691701  0.98247944     0.39900
H724        H  0.67294915  0.19145874  0.98230726     0.34800
C725        C  0.13777284  0.59778449  0.83604660    -0.26900
C726        C  0.10220992  0.61176196  0.81608712    -0.15000
C727        C  0.09740293  0.65220162  0.80448252     0.35600
C728        C  0.12960333  0.67674866  0.80921736    -0.26400
C729        C  0.16647116  0.66180920  0.82475183    -0.15600
C730        C  0.16974683  0.62227168  0.84077732     0.36700
N731        N  0.20576144  0.60633649  0.86057115    -0.89900
H732        H  0.14149261  0.56688807  0.84539561     0.17800
H733        H  0.12617180  0.70723495  0.79792859     0.17800
N734        N  0.06132097  0.66899642  0.78541668    -0.88900
H735        H  0.21487365  0.58262803  0.83805990     0.35200
H736        H  0.20025614  0.59561873  0.89650535     0.40300
H737        H  0.03919138  0.64850939  0.78411514     0.39900
H738        H  0.06637394  0.67797355  0.74859521     0.34800
C739        C  0.35577646  0.64533736  0.97304421    -0.26900
C740        C  0.35334573  0.64546022  0.92058851    -0.15000
C741        C  0.37743159  0.61889974  0.89271832     0.35600
C742        C  0.40286427  0.59261170  0.91804823    -0.26400
C743        C  0.40459366  0.59191691  0.97052889    -0.15600
C744        C  0.38063483  0.61871408  0.99821512     0.36700
N745        N  0.38143950  0.62026310  0.05178840    -0.89900
H746        H  0.33753464  0.66554815  0.99485434     0.17800
H747        H  0.42120950  0.57220280  0.89667066     0.17800
N748        N  0.37635085  0.61890265  0.83889531    -0.88900
H749        H  0.41028416  0.62436167  0.06330051     0.35200
H750        H  0.37179984  0.59359236  0.06595965     0.40300
H751        H  0.39539153  0.59716409  0.82431826     0.39900
H752        H  0.38681526  0.64588009  0.82673024     0.34800
C753        C  0.32746202  0.88371931  0.90124809    -0.26900
C754        C  0.33369611  0.84280250  0.90570546    -0.15000
C755        C  0.37291802  0.82780286  0.90878022     0.35600
C756        C  0.40415603  0.85419091  0.91039814    -0.26400
C757        C  0.39697243  0.89495901  0.91076757    -0.15600
C758        C  0.35845104  0.90963753  0.90421939     0.36700
N759        N  0.35055043  0.95119083  0.90194156    -0.89900
H760        H  0.29807930  0.89615185  0.89741628     0.17800
H761        H  0.43387152  0.84294076  0.91548630     0.17800
N762        N  0.38108200  0.78621579  0.91233186    -0.88900
H763        H  0.33121932  0.95878647  0.93100734     0.35200
H764        H  0.33650171  0.95743903  0.86802083     0.40300
H765        H  0.37164065  0.77710046  0.94762252     0.39900
H766        H  0.41127621  0.78027846  0.91123996     0.34800
C767        C  0.25999049  0.72507823  0.58076088    -0.26900
C768        C  0.26343110  0.76357988  0.56297666    -0.15000
C769        C  0.26188549  0.79517412  0.59744966     0.35600
C770        C  0.25619264  0.78760512  0.64866744    -0.26400
C771        C  0.25271126  0.74907311  0.66668603    -0.15600
C772        C  0.25425775  0.71742713  0.63200909     0.36700
N773        N  0.24950332  0.67764321  0.64866375    -0.89900
H774        H  0.26048418  0.70090191  0.55429953     0.17800
H775        H  0.25568370  0.81196594  0.67483937     0.17800
N776        N  0.26685204  0.83483429  0.58043295    -0.88900
H777        H  0.25195088  0.65796872  0.61865100     0.35200
H778        H  0.22096593  0.67558891  0.66251326     0.40300
H779        H  0.29529078  0.83657432  0.56615150     0.39900
H780        H  0.26484244  0.85462075  0.61036691     0.34800
C781        C  0.24993714  0.78917257  0.09306257    -0.26900
C782        C  0.25156118  0.75581956  0.06175411    -0.15000
C783        C  0.25524278  0.71838940  0.08441071     0.35600
C784        C  0.25871446  0.71517925  0.13683161    -0.26400
C785        C  0.25773393  0.74856338  0.16811299    -0.15600
C786        C  0.25272934  0.78607067  0.14560909     0.36700
N787        N  0.25090119  0.82105359  0.17588217    -0.89900
H788        H  0.24687851  0.81812914  0.07645825     0.17800
H789        H  0.26155211  0.68611279  0.15320191     0.17800
N790        N  0.25438591  0.68337334  0.05466018    -0.88900
H791        H  0.24603984  0.84602012  0.15370590     0.35200
H792        H  0.27835064  0.82410171  0.19247491     0.40300
H793        H  0.23084730  0.66678052  0.06680823     0.39900
H794        H  0.28019927  0.66699989  0.06127789     0.34800
C795        C  0.17949192  0.62856528  0.34411423    -0.26900
C796        C  0.17545283  0.66696415  0.32493832    -0.15000
C797        C  0.13888697  0.67889584  0.30378590     0.35600
C798        C  0.10866352  0.65175040  0.29973749    -0.26400
C799        C  0.11412303  0.61265626  0.31557737    -0.15600
C800        C  0.14963013  0.60145095  0.33923496     0.36700
N801        N  0.15654318  0.56230041  0.35754203    -0.89900
H802        H  0.20686470  0.61886941  0.36115095     0.17800
H803        H  0.08179864  0.66049828  0.28075469     0.17800
N804        N  0.13236990  0.71729945  0.28294832    -0.88900
H805        H  0.15531993  0.54260300  0.32760086     0.35200
H806        H  0.13425103  0.55585942  0.38287967     0.40300
H807        H  0.15347105  0.72194483  0.25530597     0.39900
H808        H  0.13533849  0.73814715  0.31134496     0.34800
C809        C  0.40002729  0.65043338  0.43576354    -0.26900
C810        C  0.36044469  0.64349531  0.42545143    -0.15000
C811        C  0.34609205  0.60580991  0.43504256     0.35600
C812        C  0.37164122  0.57527735  0.45092809    -0.26400
C813        C  0.41211044  0.58088044  0.45717028    -0.15600
C814        C  0.42613465  0.61956580  0.45105500     0.36700
N815        N  0.46686353  0.62734549  0.45851122    -0.89900
H816        H  0.41113824  0.67949813  0.42905659     0.17800
H817        H  0.35962733  0.54648636  0.45683533     0.17800
N818        N  0.30533258  0.59830082  0.42845873    -0.88900
H819        H  0.47190155  0.65736909  0.45456833     0.35200
H820        H  0.48263387  0.61317333  0.42982605     0.40300
H821        H  0.29419162  0.58856093  0.46262912     0.39900
H822        H  0.30288245  0.57555810  0.40239117     0.34800
C823        C  0.39182023  0.84026147  0.42281188    -0.26900
C824        C  0.35385863  0.85122188  0.40651402    -0.15000
C825        C  0.34747308  0.88953048  0.38714441     0.35600
C826        C  0.37783340  0.91645037  0.38754582    -0.26400
C827        C  0.41532079  0.90673535  0.40638456    -0.15600
C828        C  0.42260840  0.86760521  0.42314727     0.36700
N829        N  0.46073756  0.85580943  0.44122983    -0.89900
H830        H  0.39709141  0.81081599  0.43714397     0.17800
H831        H  0.37177231  0.94565164  0.37290004     0.17800
N832        N  0.30987706  0.90118453  0.36695440    -0.88900
H833        H  0.46145268  0.82598966  0.45073734     0.35200
H834        H  0.46563722  0.87130501  0.47434577     0.40300
H835        H  0.30510509  0.88394409  0.33523484     0.39900
H836        H  0.30969341  0.93041761  0.35488320     0.34800
C837        C  0.08404013  0.39378017  0.66816355    -0.26900
C838        C  0.09572762  0.42037647  0.70516303    -0.15000
C839        C  0.13210252  0.41347736  0.72948691     0.35600
C840        C  0.15652483  0.38154294  0.71468064    -0.26400
C841        C  0.14576694  0.35665072  0.67534585    -0.15600
C842        C  0.10877994  0.36228966  0.65274330     0.36700
N843        N  0.09708679  0.33664418  0.61299740    -0.89900
H844        H  0.05625222  0.39875565  0.64935716     0.17800
H845        H  0.18496468  0.37745198  0.73212991     0.17800
N846        N  0.14492509  0.43822821  0.76929461    -0.88900
H847        H  0.06925835  0.34492795  0.59983447     0.35200
H848        H  0.09472665  0.30845486  0.62809501     0.40300
H849        H  0.12326544  0.43912884  0.79703539     0.39900
H850        H  0.14842527  0.46663035  0.75548710     0.34800
C851        C  0.32259127  0.38617079  0.57056717    -0.26900
C852        C  0.33045316  0.34579143  0.57711003    -0.15000
C853        C  0.36993067  0.33241490  0.58256137     0.35600
C854        C  0.40038291  0.35950504  0.57821529    -0.26400
C855        C  0.39209879  0.39929915  0.56777962    -0.15600
C856        C  0.35271937  0.41272958  0.56548112     0.25500
N857        N  0.34301661  0.45339708  0.55658190    -0.89900
H858        H  0.29271946  0.39733793  0.56690341     0.17800
H859        H  0.43062773  0.34915549  0.58023774     0.17800
N860        N  0.37910358  0.29149212  0.59112797    -0.88900
H861        H  0.32551709  0.46375366  0.58619174     0.35200
H862        H  0.32648511  0.45536222  0.52371984     0.40300
H863        H  0.36799087  0.28429379  0.62633938     0.39900
H864        H  0.40942335  0.28653608  0.59288625     0.34800
C865        C  0.38504338  0.11311057  0.48428951    -0.26900
C866        C  0.41031228  0.09095375  0.51536891    -0.15000
C867        C  0.41010185  0.09810725  0.56743984     0.35600
C868        C  0.38417375  0.12683034  0.58723407    -0.26400
C869        C  0.35836356  0.14855281  0.55630886    -0.15600
C870        C  0.35944516  0.14196701  0.50402591     0.36700
N871        N  0.33388652  0.16281964  0.47027346    -0.89900
H872        H  0.38526467  0.10804975  0.44421752     0.17800
H873        H  0.38358464  0.13179709  0.62731635     0.17800
N874        N  0.43532604  0.07548017  0.60020450    -0.88900
H875        H  0.33983086  0.19275968  0.47208023     0.35200
H876        H  0.30503152  0.15862429  0.48172894     0.40300
H877        H  0.42644073  0.04632080  0.59890747     0.39900
H878        H  0.43186004  0.08477454  0.63731099     0.34800
C879        C  0.27697957  0.22433543  0.89863196    -0.26900
C880        C  0.26166374  0.25950094  0.91928747    -0.15000
C881        C  0.24510412  0.28810755  0.88636929     0.35600
C882        C  0.24369603  0.28084126  0.83474791    -0.26400
C883        C  0.25908241  0.24585909  0.81394154    -0.15600
C884        C  0.27649035  0.21736780  0.84656434     0.36700
N885        N  0.29434321  0.18175401  0.82704446    -0.89900
H886        H  0.28990255  0.20222375  0.92314607     0.17800
H887        H  0.23062000  0.30323218  0.81074536     0.17800
N888        N  0.23018087  0.32517952  0.90470421    -0.88900
H889        H  0.30443962  0.16354995  0.85605859     0.35200
H890        H  0.31914611  0.18962319  0.80674190     0.40300
H891        H  0.20075100  0.32819893  0.89430257     0.39900
H892        H  0.24560271  0.34749797  0.88719416     0.34800
C893        C  0.25780137  0.21510433  0.34512416    -0.26900
C894        C  0.26305686  0.24790845  0.31420812    -0.15000
C895        C  0.26353325  0.28570982  0.33637510     0.35600
C896        C  0.25939572  0.28959850  0.38873403    -0.26400
C897        C  0.25452568  0.25666177  0.41979276    -0.15600
C898        C  0.25267216  0.21906932  0.39723921     0.36700
N899        N  0.24437142  0.18508904  0.42697296    -0.89900
H900        H  0.25643727  0.18618634  0.32828248     0.17800
H901        H  0.26052583  0.31858272  0.40542230     0.17800
N902        N  0.26881458  0.31999311  0.30588128    -0.88900
H903        H  0.24433591  0.15973112  0.40482913     0.35200
H904        H  0.21595519  0.18892069  0.44114813     0.40300
H905        H  0.29693554  0.31787475  0.29038071     0.39900
H906        H  0.26784400  0.34549484  0.32778118     0.34800
C907        C  0.15825580  0.43563078  0.19990812    -0.26900
C908        C  0.11833793  0.42684138  0.20487282    -0.15000
C909        C  0.10723627  0.38735005  0.19736446     0.35600
C910        C  0.13562179  0.35875649  0.18222581    -0.26400
C911        C  0.17482203  0.36845252  0.17398608    -0.15600
C912        C  0.18626049  0.40727799  0.18440105     0.36700
N913        N  0.22616770  0.41884885  0.18010448    -0.89900
H914        H  0.16782327  0.46530330  0.20649401     0.17800
H915        H  0.12673733  0.32896387  0.17485533     0.17800
N916        N  0.06706250  0.37652682  0.20286317    -0.88900
H917        H  0.23494995  0.41659428  0.14272356     0.35200
H918        H  0.24367363  0.39983583  0.20181529     0.40300
H919        H  0.05994591  0.37884675  0.24085495     0.39900
H920        H  0.06363718  0.34702616  0.19321991     0.34800
C921        C  0.35097798  0.38343818  0.03781167    -0.26900
C922        C  0.35659042  0.34683304  0.06165508    -0.15000
C923        C  0.39400523  0.33842378  0.08314053     0.35600
C924        C  0.42298284  0.36750658  0.08349724    -0.26400
C925        C  0.41591719  0.40493997  0.06222626    -0.15600
C926        C  0.37988079  0.41192565  0.03747984     0.36700
N927        N  0.37238482  0.44813952  0.01136599    -0.89900
H928        H  0.32352163  0.39050725  0.01919645     0.17800
H929        H  0.45064767  0.36121035  0.10199101     0.17800
N930        N  0.40329704  0.30121830  0.10579091    -0.88900
H931        H  0.34724595  0.46166001  0.02671872     0.35200
H932        H  0.36658170  0.44151888  0.97391873     0.40300
H933        H  0.40073943  0.27926502  0.07867422     0.39900
H934        H  0.38321945  0.29635025  0.13456721     0.34800
C935        C  0.37387772  0.06994352  0.03597308    -0.26900
C936        C  0.41446304  0.07482530  0.03032948    -0.15000
C937        C  0.42927692  0.11313786  0.03730927     0.35600
C938        C  0.40339678  0.14484139  0.05048978    -0.26400
C939        C  0.36326306  0.13905391  0.05832920    -0.15600
C940        C  0.34852792  0.10132147  0.04984213     0.36700
N941        N  0.30748940  0.09468357  0.05542204    -0.89900
H942        H  0.36152659  0.04125476  0.03047983     0.17800
H943        H  0.41497360  0.17366189  0.05754779     0.17800
N944        N  0.47057910  0.11963108  0.03309447    -0.88900
H945        H  0.30400865  0.07284123  0.08246034     0.35200
H946        H  0.29700525  0.08406760  0.02138107     0.40300
H947        H  0.48444932  0.10471566  0.06263317     0.39900
H948        H  0.47640636  0.14940576  0.03796498     0.34800
C949        C  0.86327821  0.08362595  0.64309219    -0.26900
C950        C  0.89799238  0.09155042  0.66921469    -0.15000
C951        C  0.90140182  0.12892052  0.69201230     0.35600
C952        C  0.86986670  0.15677330  0.68887034    -0.26400
C953        C  0.83475319  0.14779262  0.66437650    -0.15600
C954        C  0.83203406  0.11108511  0.64016090     0.36700
N955        N  0.79740292  0.10173633  0.61245747    -0.89900
H956        H  0.86027639  0.05558173  0.62445102     0.17800
H957        H  0.87200643  0.18488887  0.70761018     0.17800
N958        N  0.93609734  0.13813939  0.71948825    -0.88900
H959        H  0.79974042  0.07336684  0.59745058     0.35200
H960        H  0.79539230  0.12107078  0.58210580     0.40300
H961        H  0.93742009  0.11967089  0.75074513     0.39900
H962        H  0.93411326  0.16691687  0.73322846     0.34800
C963        C  0.91175717  0.86904934  0.78190063    -0.26900
C964        C  0.89768367  0.90781642  0.77481143    -0.15000
C965        C  0.85817480  0.91733038  0.78610845     0.35600
C966        C  0.83372512  0.88799917  0.80467407    -0.26400
C967        C  0.84759791  0.84908428  0.81167690    -0.15600
C968        C  0.88716636  0.83961245  0.79955722     0.36700
N969        N  0.90357666  0.80079802  0.80627193    -0.89900
H970        H  0.94202908  0.86146874  0.77305743     0.17800
H971        H  0.80356600  0.89563381  0.81398947     0.17800
N972        N  0.84323875  0.95693257  0.77971245    -0.88900
H973        H  0.88849203  0.78143863  0.78338809     0.35200
H974        H  0.89975362  0.79260931  0.84363848     0.40300
H975        H  0.85813764  0.97482612  0.80472916     0.39900
H976        H  0.81360833  0.95904351  0.78958793     0.34800
C977        C  0.10841385  0.85466666  0.80806358    -0.26900
C978        C  0.14881776  0.86096699  0.80690415    -0.15000
C979        C  0.16242344  0.89722974  0.78950432     0.35600
C980        C  0.13567550  0.92714966  0.77619993    -0.26400
C981        C  0.09504442  0.92234060  0.78075226    -0.15600
C982        C  0.08120288  0.88498454  0.79521741     0.36700
N983        N  0.03989983  0.87854326  0.79986175    -0.89900
H984        H  0.09806472  0.82675753  0.82158210     0.17800
H985        H  0.14697602  0.95509907  0.76425993     0.17800
N986        N  0.20342891  0.90473198  0.78596160    -0.88900
H987        H  0.03493677  0.85046410  0.81403059     0.35200
H988        H  0.02806277  0.87908030  0.76380244     0.40300
H989        H  0.21653723  0.88315684  0.76306596     0.39900
H990        H  0.21579752  0.90255956  0.82162477     0.34800
C991        C  0.14368208  0.09384338  0.66049365    -0.26900
C992        C  0.10658257  0.10917876  0.67362513    -0.15000
C993        C  0.10074680  0.15033593  0.67634719     0.35600
C994        C  0.13310936  0.17505794  0.67032624    -0.26400
C995        C  0.17103788  0.15945916  0.66033204    -0.15600
C996        C  0.17549544  0.11831078  0.65273430     0.36700
N997        N  0.21241014  0.10078578  0.63808789    -0.89900
H998        H  0.14832892  0.06226935  0.65747035     0.17800
H999        H  0.12882346  0.20650679  0.67505843     0.17800
N1000       N  0.06263316  0.16672929  0.68817706    -0.88900
H1001       H  0.20843272  0.08572276  0.60441547     0.35200
H1002       H  0.22096033  0.08028175  0.66535770     0.40300
H1003       H  0.04410600  0.16026765  0.65834380     0.39900
H1004       H  0.06348298  0.19739081  0.69020023     0.34800
C1005       C  0.98998129  0.97940548  0.49635524    -0.26900
C1006       C  0.00011369  0.01127427  0.52683457    -0.15000
C1007       C  0.01717128  0.04435145  0.50435522     0.35600
C1008       C  0.02406320  0.04444196  0.45242904    -0.26400
C1009       C  0.01395134  0.01254896  0.42192690    -0.15600
C1010       C  0.99683261  0.97947866  0.44446083     0.36700
N1011       N  0.98693502  0.94576796  0.41499211    -0.89900
H1012       H  0.97716175  0.95380345  0.51322965     0.17800
H1013       H  0.03690969  0.07003816  0.43558481     0.17800
N1014       N  0.02685396  0.07806315  0.53393661    -0.88900
H1015       H  0.97365705  0.92453471  0.43710566     0.35200
H1016       H  0.01309452  0.93289453  0.40167291     0.40300
H1017       H  0.00061461  0.09063718  0.54743783     0.39900
H1018       H  0.03983395  0.09947053  0.51180273     0.34800
C1019       C  0.98828818  0.97949363  0.99849898    -0.26900
C1020       C  0.00329506  0.01030171  0.02745922    -0.15000
C1021       C  0.01987123  0.04254351  0.00285089     0.35600
C1022       C  0.02169076  0.04286335  0.95027109    -0.26400
C1023       C  0.00710094  0.01187022  0.92132210    -0.15600
C1024       C  0.99039771  0.97964975  0.94592785     0.36700
N1025       N  0.97669020  0.94668665  0.91779806    -0.89900
H1026       H  0.97559280  0.95452691  0.01702693     0.17800
H1027       H  0.03443433  0.06779493  0.93173213     0.17800
N1028       N  0.03426540  0.07512631  0.03106590    -0.88900
H1029       H  0.96472330  0.92575572  0.94159364     0.35200
H1030       H  0.00105008  0.93303161  0.90067888     0.40300
H1031       H  0.01025367  0.08891194  0.04878229     0.39900
H1032       H  0.04621939  0.09606452  0.00727539     0.34800
C1033       C  0.88212579  0.15208441  0.16550014    -0.26900
C1034       C  0.84529231  0.14111087  0.18397667    -0.15000
C1035       C  0.84208031  0.10328771  0.20576762     0.35600
C1036       C  0.87442771  0.07737550  0.20626658    -0.26400
C1037       C  0.91048830  0.08734906  0.18506146    -0.15600
C1038       C  0.91454099  0.12572240  0.16560339     0.36700
N1039       N  0.95047501  0.13830055  0.14386689    -0.89900
H1040       H  0.88553408  0.18098292  0.14928257     0.17800
H1041       H  0.87090245  0.04849044  0.22254600     0.17800
N1042       N  0.80662702  0.09007850  0.22822572    -0.88900
H1043       H  0.95833399  0.11906098  0.11477538     0.35200
H1044       H  0.97226301  0.13714332  0.17128004     0.40300
H1045       H  0.78525861  0.08734934  0.20062061     0.39900
H1046       H  0.79721645  0.11053295  0.25521225     0.34800
C1047       C  0.93095076  0.88000156  0.32285520    -0.26900
C1048       C  0.92246784  0.89610635  0.27559550    -0.15000
C1049       C  0.89157759  0.88047681  0.24725839     0.35600
C1050       C  0.86864288  0.85088499  0.26758155    -0.26400
C1051       C  0.87560444  0.83661467  0.31595967    -0.15600
C1052       C  0.90766440  0.85060580  0.34348947     0.36700
N1053       N  0.91601211  0.83533967  0.39260943    -0.89900
H1054       H  0.95501038  0.89121242  0.34447327     0.17800
H1055       H  0.84406119  0.84041575  0.24629259     0.17800
N1056       N  0.88313635  0.89465491  0.19784732    -0.88900
H1057       H  0.94034527  0.84888696  0.40798444     0.35200
H1058       H  0.92362083  0.80551664  0.38867101     0.40300
H1059       H  0.85420050  0.90551658  0.19736200     0.39900
H1060       H  0.88526234  0.87085247  0.17310819     0.34800
C1061       C  0.15462154  0.93928137  0.29361060    -0.26900
C1062       C  0.11504974  0.93050243  0.28634277    -0.15000
C1063       C  0.10394893  0.89071374  0.28933777     0.35600
C1064       C  0.13202198  0.86127801  0.30172528    -0.26400
C1065       C  0.17088585  0.87080430  0.31217970    -0.15600
C1066       C  0.18233362  0.91004668  0.30671591     0.36700
N1067       N  0.22219815  0.92046391  0.31478032    -0.89900
H1068       H  0.16415429  0.96931469  0.29062055     0.17800
H1069       H  0.12288219  0.83117150  0.30573237     0.17800
N1070       N  0.06405378  0.88008880  0.28196929    -0.88900
H1071       H  0.22265583  0.94156206  0.34325021     0.35200
H1072       H  0.23262205  0.93331684  0.28198367     0.40300
H1073       H  0.05422372  0.86652914  0.31461120     0.39900
H1074       H  0.06331837  0.85954365  0.25287846     0.34800
C1075       C  0.14474121  0.17740015  0.18484921    -0.26900
C1076       C  0.17912256  0.16387687  0.16053070    -0.15000
C1077       C  0.18026713  0.12532765  0.14024146     0.35600
C1078       C  0.14843874  0.10047200  0.14804614    -0.26400
C1079       C  0.11526365  0.11327651  0.17513505    -0.15600
C1080       C  0.11326226  0.15237855  0.19297103     0.36700
N1081       N  0.08065846  0.16658476  0.22224263    -0.89900
H1082       H  0.14335532  0.20671676  0.20077221     0.17800
H1083       H  0.15022503  0.07033846  0.13483790     0.17800
N1084       N  0.21418433  0.11115306  0.11300688    -0.88900
H1085       H  0.07840052  0.14889367  0.25405599     0.35200
H1086       H  0.05521774  0.16369218  0.20101143     0.40300
H1087       H  0.21649300  0.12824798  0.08067715     0.39900
H1088       H  0.21055759  0.08218919  0.10110142     0.34800
loop_ 
_geom_bond_atom_site_label_1 
_geom_bond_atom_site_label_2 
_geom_bond_distance 
_geom_bond_site_symmetry_2 
_ccdc_geom_bond_type 
O1           Ni7   1.922       .  S
O1           C22   1.268       .  A
O2          Ni25   1.932       .  S
O2           C11   1.275       .  A
O3           Ni7   1.903   1_455  S
O3          Ni25   1.915   1_565  S
O3          Ni19   1.911       .  S
O3           H26   0.967       .  S
C4           O21   1.277   1_545  A
C4           O13   1.279       .  A
C4         C1009   1.491       .  S
O5          Ni24   1.928       .  S
O5           C11   1.271       .  A
O6          Ni24   1.909   1_565  S
O6            C8   1.270       .  A
Ni7          O10   1.912       .  S
Ni7          O12   1.896   1_565  S
C8           O18   1.268       .  A
C8         C1062   1.490       .  S
O9          Ni25   1.928       .  S
O9           C15   1.281   1_455  A
O10          C15   1.274   1_565  A
C11        C1079   1.482       .  S
O12          C14   1.269       .  A
O13         Ni24   1.925       .  S
C14          O20   1.275       .  A
C14        C1037   1.487       .  S
C15        C1020   1.488   1_655  S
H16          O17   0.967       .  S
O17         Ni25   1.916       .  S
O17         Ni19   1.902   1_545  S
O17         Ni24   1.901       .  S
O18         Ni19   1.920       .  S
Ni19         O23   1.910   1_455  S
Ni19         O21   1.919       .  S
O20         Ni25   1.940   1_655  S
C22          O23   1.267       .  A
C22        C1048   1.484       .  S
O27         Ni33   1.936       .  S
O27          C48   1.273       .  A
O28         Ni51   1.930       .  S
O28          C37   1.274       .  A
O29         Ni33   1.899       .  S
O29         Ni51   1.914   1_665  S
O29         Ni45   1.916       .  S
O29          H52   0.966   1_655  S
C30          O47   1.283   1_445  A
C30          O39   1.278       .  A
C30        C1023   1.488       .  S
O31         Ni50   1.925       .  S
O31          C37   1.271       .  A
O32         Ni50   1.909   1_565  S
O32          C34   1.269       .  A
Ni33         O36   1.925       .  S
Ni33         O38   1.900   1_565  S
C34          O44   1.268       .  A
C34         C981   1.493       .  S
O35         Ni51   1.919       .  S
O35          C41   1.276   1_455  A
O36          C41   1.277   1_565  A
C37         C992   1.485       .  S
O38          C40   1.271       .  A
O39         Ni50   1.917       .  S
C40          O46   1.280       .  A
C40         C950   1.500       .  S
C41        C1006   1.490   1_655  S
H42          O43   0.966   1_655  S
O43         Ni51   1.905       .  S
O43         Ni45   1.903   1_445  S
O43         Ni50   1.898       .  S
O44         Ni45   1.925   1_455  S
Ni45         O49   1.917       .  S
Ni45         O47   1.931       .  S
O46         Ni51   1.952   1_655  S
C48          O49   1.270       .  A
C48         C964   1.484       .  S
O53         Ni59   1.937       .  S
O53          C74   1.272       .  A
O54         Ni77   1.934       .  S
O54          C63   1.276       .  A
O55         Ni59   1.899       .  S
O55         Ni77   1.911       .  S
O55         Ni71   1.901       .  S
O55          H78   0.966       .  S
C56          O73   1.271       .  A
C56          O65   1.279       .  A
C56         C894   1.493       .  S
O57         Ni76   1.937       .  S
O57          C63   1.275       .  A
O58         Ni76   1.906       .  S
O58          C60   1.269       .  A
Ni59         O62   1.915   1_554  S
Ni59         O64   1.909       .  S
C60          O70   1.277       .  A
C60        C1076   1.494       .  S
O61         Ni77   1.941       .  S
O61          C67   1.285   1_554  A
O62          C67   1.276       .  A
C63         C939   1.494       .  S
O64          C66   1.272       .  A
O65         Ni76   1.943       .  S
C66          O72   1.278       .  A
C66         C922   1.510       .  S
C67         C880   1.498       .  S
H68          O69   0.966       .  S
O69         Ni77   1.926       .  S
O69         Ni71   1.920       .  S
O69         Ni76   1.912       .  S
O70         Ni71   1.948       .  S
Ni71         O75   1.918       .  S
Ni71         O73   1.910       .  S
O72         Ni77   1.955       .  S
C74          O75   1.269       .  A
C74         C911   1.490       .  S
O79         Ni85   1.924       .  S
O79         C100   1.271       .  A
O80        Ni103   1.903       .  S
O80          C89   1.265       .  A
O81         Ni85   1.923       .  S
O81        Ni103   1.915       .  S
O81         Ni97   1.934       .  S
O81         H104   0.966       .  S
C82          O99   1.274       .  A
C82          O91   1.270       .  A
C82         C883   1.497       .  S
O83        Ni102   1.922       .  S
O83          C89   1.270       .  A
O84        Ni102   1.900       .  S
O84          C86   1.269       .  A
Ni85         O88   1.943       .  S
Ni85         O90   1.900       .  S
C86          O96   1.281       .  A
C86         C995   1.501       .  S
O87        Ni103   1.909       .  S
O87          C93   1.267       .  A
O88          C93   1.273       .  A
C89         C869   1.480       .  S
O90          C92   1.271       .  A
O91        Ni102   1.928       .  S
C92          O98   1.277       .  A
C92         C852   1.489       .  S
C93         C897   1.497       .  S
H94          O95   0.966       .  S
O95        Ni103   1.913       .  S
O95         Ni97   1.910       .  S
O95        Ni102   1.917       .  S
O96         Ni97   1.958       .  S
Ni97        O101   1.922       .  S
Ni97         O99   1.917       .  S
O98        Ni103   1.947       .  S
C100        O101   1.272       .  A
C100        C841   1.482       .  S
O105       Ni111   1.945       .  S
O105        C126   1.277       .  A
O106       Ni129   1.915       .  S
O106        C115   1.268       .  A
O107       Ni111   1.912       .  S
O107       Ni129   1.918       .  S
O107       Ni123   1.924       .  S
O107        H130   0.966       .  S
C108        O125   1.281       .  A
C108        O117   1.275       .  A
C108        C768   1.485       .  S
O109       Ni128   1.927       .  S
O109        C115   1.271       .  A
O110       Ni128   1.901       .  S
O110        C112   1.269       .  A
Ni111       O114   1.944       .  S
Ni111       O116   1.908       .  S
C112        O122   1.278       .  A
C112        C824   1.499       .  S
O113       Ni129   1.921       .  S
O113        C119   1.276       .  A
O114        C119   1.280       .  A
C115       C1065   1.480       .  S
O116        C118   1.270       .  A
O117       Ni128   1.915       .  S
C118        O124   1.273       .  A
C118        C796   1.494       .  S
C119        C785   1.501       .  S
H120        O121   0.966       .  S
O121       Ni129   1.910       .  S
O121       Ni123   1.909       .  S
O121       Ni128   1.904       .  S
O122       Ni123   1.955       .  S
Ni123       O127   1.924       .  S
Ni123       O125   1.934       .  S
O124       Ni129   1.939       .  S
C126        O127   1.272       .  A
C126        C810   1.495       .  S
O131       Ni137   1.924       .  S
O131        C152   1.270       .  A
O132       Ni155   1.913       .  S
O132        C141   1.267       .  A
O133       Ni137   1.922       .  S
O133       Ni155   1.916       .  S
O133       Ni149   1.919       .  S
O133        H156   0.966       .  S
C134        O151   1.272   1_554  A
C134        O143   1.274   1_554  A
C134        C782   1.500       .  S
O135       Ni154   1.927       .  S
O135        C141   1.270       .  A
O136       Ni154   1.904       .  S
O136        C138   1.270       .  A
Ni137       O140   1.926       .  S
Ni137       O142   1.898       .  S
C138        O148   1.273       .  A
C138        C754   1.497       .  S
O139       Ni155   1.915       .  S
O139        C145   1.272       .  A
O140        C145   1.271       .  A
C141        C978   1.475       .  S
O142        C144   1.268       .  A
O143       Ni154   1.933       .  S
C144        O150   1.275       .  A
C144        C729   1.487       .  S
C145        C771   1.492       .  S
H146        O147   0.966       .  S
O147       Ni155   1.920       .  S
O147       Ni149   1.915       .  S
O147       Ni154   1.922       .  S
O148       Ni149   1.937       .  S
Ni149       O153   1.901       .  S
Ni149       O151   1.920       .  S
O150       Ni155   1.937       .  S
C152        O153   1.266       .  A
C152        C740   1.482       .  S
O157       Ni163   1.934       .  S
O157        C178   1.274       .  A
O158       Ni181   1.924       .  S
O158        C167   1.273       .  A
O159       Ni163   1.910       .  S
O159       Ni181   1.922   1_545  S
O159       Ni175   1.923   1_556  S
O159        H182   0.966       .  S
C160        O177   1.281   1_565  A
C160        O169   1.279       .  A
C160        C687   1.485       .  S
O161       Ni180   1.922   1_556  S
O161        C167   1.271       .  A
O162       Ni180   1.917   1_545  S
O162        C164   1.270       .  A
Ni163       O166   1.928       .  S
Ni163       O168   1.912   1_545  S
C164        O174   1.273       .  A
C164        C936   1.506       .  S
O165       Ni181   1.922       .  S
O165        C171   1.275       .  A
O166        C171   1.274   1_545  A
C167        C757   1.478       .  S
O168        C170   1.273       .  A
O169       Ni180   1.923       .  S
C170        O176   1.278       .  A
C170        C701   1.495       .  S
C171        C673   1.483       .  S
H172        O173   0.966       .  S
O173       Ni181   1.909       .  S
O173       Ni175   1.889   1_566  S
O173       Ni180   1.892   1_556  S
O174       Ni175   1.938       .  S
Ni175       O179   1.897       .  S
Ni175       O177   1.928       .  S
O176       Ni181   1.953       .  S
C178        O179   1.265   1_556  A
C178        C715   1.477   1_556  S
O183       Ni189   1.924       .  S
O183        C204   1.272       .  A
O184       Ni207   1.895       .  S
O184        C193   1.265       .  A
O185       Ni189   1.893       .  S
O185       Ni207   1.891   1_565  S
O185       Ni201   1.911       .  S
O185        H208   0.966       .  S
C186        O203   1.275       .  A
C186        O195   1.275   1_565  A
C186        C684   1.475       .  S
O187       Ni206   1.934       .  S
O187        C193   1.274       .  A
O188       Ni206   1.909   1_565  S
O188        C190   1.274       .  A
Ni189       O192   1.927       .  S
Ni189       O194   1.918   1_565  S
C190        O200   1.280       .  A
C190        C827   1.508       .  S
O191       Ni207   1.933       .  S
O191        C197   1.282   1_545  A
O192        C197   1.279       .  A
C193        C866   1.477       .  S
O194        C196   1.271       .  A
O195       Ni206   1.924       .  S
C196        O202   1.270       .  A
C196        C656   1.506       .  S
C197        C670   1.481       .  S
H198        O199   0.966       .  S
O199       Ni207   1.921       .  S
O199       Ni201   1.914   1_545  S
O199       Ni206   1.902       .  S
O200       Ni201   1.954       .  S
Ni201       O205   1.921       .  S
Ni201       O203   1.922       .  S
O202       Ni207   1.932       .  S
C204        O205   1.272       .  A
C204        C645   1.480       .  S
O209       Ni215   1.914       .  S
O209        C230   1.269       .  A
O210       Ni233   1.902       .  S
O210        C219   1.266       .  A
O211       Ni215   1.922       .  S
O211       Ni233   1.911       .  S
O211       Ni227   1.936       .  S
O211        H234   0.966       .  S
C212        O229   1.275       .  A
C212        O221   1.274       .  A
C212        C603   1.493       .  S
O213       Ni232   1.928       .  S
O213        C219   1.271       .  A
O214       Ni232   1.903       .  S
O214        C216   1.271       .  A
Ni215       O218   1.936       .  S
Ni215       O220   1.900       .  S
C216        O226   1.274       .  A
C216        C614   1.494       .  S
O217       Ni233   1.905       .  S
O217        C223   1.264       .  A
O218        C223   1.271       .  A
C219        C628   1.476       .  S
O220        C222   1.269       .  A
O221       Ni232   1.921       .  S
C222        O228   1.281       .  A
C222        C642   1.497       .  S
C223        C586   1.494       .  S
H224        O225   0.966       .  S
O225       Ni233   1.904       .  S
O225       Ni227   1.905       .  S
O225       Ni232   1.913       .  S
O226       Ni227   1.940       .  S
Ni227       O231   1.910       .  S
Ni227       O229   1.919       .  S
O228       Ni233   1.954       .  S
C230        O231   1.270       .  A
C230       C1051   1.477       .  S
O235       Ni241   1.936       .  S
O235        C256   1.273       .  A
O236       Ni259   1.935       .  S
O236        C245   1.275       .  A
O237       Ni241   1.905       .  S
O237       Ni259   1.912       .  S
O237       Ni253   1.902       .  S
O237        H260   0.966       .  S
C238        O255   1.271       .  A
C238        O247   1.276       .  A
C238        C589   1.486       .  S
O239       Ni258   1.933       .  S
O239        C245   1.272       .  A
O240       Ni258   1.907       .  S
O240        C242   1.270       .  A
Ni241       O244   1.920       .  S
Ni241       O246   1.905       .  S
C242        O252   1.277       .  A
C242        C558   1.494       .  S
O243       Ni259   1.923       .  S
O243        C249   1.280   1_556  A
O244        C249   1.278   1_556  A
C245        C572   1.493       .  S
O246        C248   1.270       .  A
O247       Ni258   1.929       .  S
C248        O254   1.277       .  A
C248        C698   1.499       .  S
C249        C600   1.495       .  S
H250        O251   0.966       .  S
O251       Ni259   1.921       .  S
O251       Ni253   1.924       .  S
O251       Ni258   1.915       .  S
O252       Ni253   1.947       .  S
Ni253       O257   1.923       .  S
Ni253       O255   1.909       .  S
O254       Ni259   1.951       .  S
C256        O257   1.270       .  A
C256        C967   1.491       .  S
O261       Ni267   1.931       .  S
O261        C282   1.272       .  A
O262       Ni285   1.909       .  S
O262        C271   1.269       .  A
O263       Ni267   1.913       .  S
O263       Ni285   1.905       .  S
O263       Ni279   1.904       .  S
O263        H286   0.966       .  S
C264        O281   1.268   1_556  A
C264        O273   1.272       .  A
C264        C502   1.495       .  S
O265       Ni284   1.917       .  S
O265        C271   1.269       .  A
O266       Ni284   1.907       .  S
O266        C268   1.272       .  A
Ni267       O270   1.919       .  S
Ni267       O272   1.906       .  S
C268        O278   1.275       .  A
C268        C547   1.494       .  S
O269       Ni285   1.928       .  S
O269        C275   1.278       .  A
O270        C275   1.274       .  A
C271        C533   1.467       .  S
O272        C274   1.269       .  A
O273       Ni284   1.940   1_556  S
C274        O280   1.274       .  A
C274       C1034   1.493       .  S
C275        C516   1.499       .  S
H276        O277   0.966       .  S
O277       Ni285   1.937       .  S
O277       Ni279   1.912       .  S
O277       Ni284   1.924       .  S
O278       Ni279   1.944       .  S
Ni279       O283   1.900       .  S
Ni279       O281   1.912       .  S
O280       Ni285   1.936       .  S
C282        O283   1.264       .  A
C282        C712   1.482       .  S
O287       Ni293   1.937       .  S
O287        C308   1.273       .  A
O288       Ni311   1.921       .  S
O288        C297   1.271       .  A
O289       Ni293   1.917       .  S
O289       Ni311   1.923       .  S
O289       Ni305   1.919       .  S
O289        H312   0.966       .  S
C290        O307   1.274       .  A
C290        O299   1.273       .  A
C290        C519   1.499       .  S
O291       Ni310   1.927       .  S
O291        C297   1.270       .  A
O292       Ni310   1.902       .  S
O292        C294   1.270       .  A
Ni293       O296   1.932       .  S
Ni293       O298   1.901       .  S
C294        O304   1.280       .  A
C294        C488   1.495       .  S
O295       Ni311   1.920       .  S
O295        C301   1.275       .  A
O296        C301   1.276       .  A
C297        C474   1.488       .  S
O298        C300   1.268       .  A
O299       Ni310   1.921       .  S
C300        O306   1.276       .  A
C300        C953   1.491       .  S
C301        C505   1.490       .  S
H302        O303   0.966       .  S
O303       Ni311   1.918       .  S
O303       Ni305   1.923       .  S
O303       Ni310   1.915       .  S
O304       Ni305   1.959       .  S
Ni305       O309   1.928       .  S
Ni305       O307   1.922       .  S
O306       Ni311   1.948       .  S
C308        O309   1.272       .  A
C308        C659   1.493       .  S
O313       Ni319   1.935       .  S
O313        C334   1.272   1_554  A
O314       Ni337   1.929       .  S
O314        C323   1.275       .  A
O315       Ni319   1.911       .  S
O315       Ni337   1.925       .  S
O315       Ni331   1.922   1_554  S
O315        H338   0.966       .  S
C316        O333   1.278       .  A
C316        O325   1.278       .  A
C316        C449   1.479       .  S
O317       Ni336   1.921   1_554  S
O317        C323   1.270       .  A
O318       Ni336   1.920       .  S
O318        C320   1.270       .  A
Ni319       O322   1.925       .  S
Ni319       O324   1.906       .  S
C320        O330   1.273       .  A
C320        C575   1.504       .  S
O321       Ni337   1.922       .  S
O321        C327   1.274       .  A
O322        C327   1.273       .  A
C323        C544   1.489       .  S
O324        C326   1.272       .  A
O325       Ni336   1.923       .  S
C326        O332   1.283       .  A
C326        C925   1.503       .  S
C327        C463   1.477       .  S
H328        O329   0.966       .  S
O329       Ni337   1.909   1_556  S
O329       Ni331   1.893       .  S
O329       Ni336   1.896       .  S
O330       Ni331   1.942       .  S
Ni331       O335   1.895       .  S
Ni331       O333   1.925       .  S
O332       Ni337   1.969       .  S
C334        O335   1.266       .  A
C334        C743   1.480       .  S
O339       Ni345   1.914       .  S
O339        C360   1.269       .  A
O340       Ni363   1.897       .  S
O340        C349   1.269       .  A
O341       Ni345   1.888       .  S
O341       Ni363   1.889       .  S
O341       Ni357   1.910       .  S
O341        H364   0.966       .  S
C342        O359   1.275       .  A
C342        O351   1.276       .  A
C342        C446   1.477       .  S
O343       Ni362   1.933       .  S
O343        C349   1.274       .  A
O344       Ni362   1.917       .  S
O344        C346   1.274       .  A
Ni345       O348   1.920       .  S
Ni345       O350   1.911       .  S
C346        O356   1.278       .  A
C346        C491   1.504       .  S
O347       Ni363   1.942       .  S
O347        C353   1.285       .  A
O348        C353   1.279       .  A
C349        C631   1.475       .  S
O350        C352   1.269       .  A
O351       Ni362   1.923       .  S
C352        O358   1.275       .  A
C352        C813   1.509       .  S
C353        C460   1.488       .  S
H354        O355   0.966       .  S
O355       Ni363   1.923       .  S
O355       Ni357   1.911       .  S
O355       Ni362   1.903       .  S
O356       Ni357   1.950       .  S
Ni357       O361   1.919       .  S
Ni357       O359   1.921       .  S
O358       Ni363   1.950       .  S
C360        O361   1.271       .  A
C360        C855   1.479       .  S
O365       Ni371   1.927       .  S
O365        C386   1.272       .  A
O366       Ni389   1.910   1_655  S
O366        C375   1.267       .  A
O367       Ni371   1.897       .  S
O367       Ni389   1.899       .  S
O367       Ni383   1.915       .  S
O367        H390   0.966       .  S
C368        O385   1.281       .  A
C368        O377   1.275   1_455  A
C368        C421   1.487       .  S
O369       Ni388   1.919       .  S
O369        C375   1.269       .  A
O370       Ni388   1.898       .  S
O370        C372   1.265       .  A
Ni371       O374   1.928       .  S
Ni371       O376   1.912       .  S
C372        O382   1.277       .  A
C372        C617   1.494       .  S
O373       Ni389   1.919       .  S
O373        C379   1.278       .  A
O374        C379   1.280       .  A
C375        C530   1.486       .  S
O376        C378   1.270       .  A
O377       Ni388   1.911       .  S
C378        O384   1.273       .  A
C378        C908   1.502       .  S
C379        C432   1.491       .  S
H380        O381   0.966       .  S
O381       Ni389   1.910       .  S
O381       Ni383   1.908       .  S
O381       Ni388   1.900   1_455  S
O382       Ni383   1.950   1_655  S
Ni383       O387   1.930       .  S
Ni383       O385   1.931       .  S
O384       Ni389   1.935       .  S
C386        O387   1.275       .  A
C386        C799   1.481       .  S
O391       Ni397   1.922       .  S
O391        C412   1.270       .  A
O392       Ni415   1.912       .  S
O392        C401   1.270       .  A
O393       Ni397   1.906       .  S
O393       Ni415   1.901   1_455  S
O393       Ni409   1.907       .  S
O393        H416   0.968   1_455  S
C394        O411   1.273   1_655  A
C394        O403   1.276       .  A
C394        C435   1.492   1_655  S
O395       Ni414   1.932       .  S
O395        C401   1.273       .  A
O396       Ni414   1.911       .  S
O396        C398   1.272       .  A
Ni397       O400   1.922       .  S
Ni397       O402   1.913       .  S
C398        O408   1.277       .  A
C398        C561   1.504       .  S
O399       Ni415   1.922       .  S
O399        C405   1.280   1_655  A
O400        C405   1.278       .  A
C401        C477   1.485       .  S
O402        C404   1.267       .  A
O403       Ni414   1.924       .  S
C404        O410   1.272       .  A
C404        C838   1.488       .  S
C405        C418   1.491       .  S
H406        O407   0.966   1_455  S
O407       Ni415   1.923       .  S
O407       Ni409   1.913   1_655  S
O407       Ni414   1.909       .  S
O408       Ni409   1.944   1_655  S
Ni409       O413   1.909       .  S
Ni409       O411   1.918       .  S
O410       Ni415   1.934   1_455  S
C412        O413   1.267       .  A
C412        C726   1.468       .  S
C417        C418   1.411       .  A
C417        C422   1.406       .  A
C417        H424   1.083       .  S
C418        C419   1.410   1_455  A
C419        C420   1.402       .  A
C419        N426   1.432       .  S
C420        C421   1.409   1_655  A
C420        H425   1.084       .  S
C421        C422   1.412       .  A
C422        N423   1.438       .  S
N423        H427   1.046       .  S
N423        H428   1.045       .  S
N426        H429   1.046       .  S
N426        H430   1.045       .  S
C431        C432   1.407       .  A
C431        C436   1.408   1_554  A
C431        H438   1.083       .  S
C432        C433   1.415       .  A
C433        C434   1.406   1_454  A
C433        N440   1.438   1_455  S
C434        C435   1.406   1_655  A
C434        H439   1.083       .  S
C435        C436   1.416       .  A
C436        N437   1.438       .  S
N437        H441   1.046       .  S
N437        H442   1.046       .  S
N440        H443   1.046   1_655  S
N440        H444   1.046       .  S
C445        C446   1.403       .  A
C445        C450   1.403       .  A
C445        H452   1.084       .  S
C446        C447   1.411       .  A
C447        C448   1.408       .  A
C447        N454   1.438       .  S
C448        C449   1.405       .  A
C448        H453   1.084       .  S
C449        C450   1.409       .  A
C450        N451   1.433       .  S
N451        H455   1.045       .  S
N451        H456   1.045       .  S
N454        H457   1.045       .  S
N454        H458   1.046       .  S
C459        C460   1.409       .  A
C459        C464   1.409       .  A
C459        H466   1.084       .  S
C460        C461   1.412       .  A
C461        C462   1.410       .  A
C461        N468   1.438       .  S
C462        C463   1.405       .  A
C462        H467   1.084       .  S
C463        C464   1.406       .  A
C464        N465   1.438       .  S
N465        H469   1.046       .  S
N465        H470   1.046       .  S
N468        H471   1.046       .  S
N468        H472   1.046       .  S
C473        C474   1.403       .  A
C473        C478   1.410       .  A
C473        H480   1.084       .  S
C474        C475   1.416       .  A
C475        C476   1.408       .  A
C475        N482   1.438       .  S
C476        C477   1.402       .  A
C476        H481   1.083       .  S
C477        C478   1.414       .  A
C478        N479   1.438       .  S
N479        H483   1.046       .  S
N479        H484   1.046       .  S
N482        H485   1.046       .  S
N482        H486   1.046       .  S
C487        C488   1.407       .  A
C487        C492   1.420       .  A
C487        H494   1.083       .  S
C488        C489   1.413       .  A
C489        C490   1.406       .  A
C489        N496   1.439       .  S
C490        C491   1.408       .  A
C490        H495   1.083       .  S
C491        C492   1.419       .  A
C492        N493   1.437       .  S
N493        H497   1.046       .  S
N493        H498   1.045       .  S
N496        H499   1.046       .  S
N496        H500   1.046       .  S
C501        C502   1.405       .  A
C501        C506   1.408       .  A
C501        H508   1.083       .  S
C502        C503   1.419       .  A
C503        C504   1.411       .  A
C503        N510   1.438       .  S
C504        C505   1.404       .  A
C504        H509   1.084       .  S
C505        C506   1.414       .  A
C506        N507   1.438       .  S
N507        H511   1.046       .  S
N507        H512   1.046       .  S
N510        H513   1.046       .  S
N510        H514   1.046       .  S
C515        C516   1.412       .  A
C515        C520   1.409       .  A
C515        H522   1.083       .  S
C516        C517   1.410       .  A
C517        C518   1.404       .  A
C517        N524   1.430       .  S
C518        C519   1.410       .  A
C518        H523   1.083       .  S
C519        C520   1.415       .  A
C520        N521   1.438       .  S
N521        H525   1.046       .  S
N521        H526   1.046       .  S
N524        H527   1.046       .  S
N524        H528   1.046       .  S
C529        C530   1.406       .  A
C529        C534   1.396       .  A
C529        H536   1.084       .  S
C530        C531   1.413       .  A
C531        C532   1.405       .  A
C531        N538   1.432       .  S
C532        C533   1.403       .  A
C532        H537   1.084       .  S
C533        C534   1.413       .  A
C534        N535   1.439       .  S
N535        H539   1.044       .  S
N535        H540   1.043       .  S
N538        H541   1.045       .  S
N538        H542   1.045       .  S
C543        C544   1.404       .  A
C543        C548   1.406       .  A
C543        H550   1.084       .  S
C544        C545   1.420       .  A
C545        C546   1.396       .  A
C545        N552   1.434       .  S
C546        C547   1.404       .  A
C546        H551   1.084       .  S
C547        C548   1.423       .  A
C548        N549   1.433       .  S
N549        H553   1.045       .  S
N549        H554   1.044       .  S
N552        H555   1.045       .  S
N552        H556   1.044       .  S
C557        C558   1.407       .  A
C557        C562   1.417       .  A
C557        H564   1.083       .  S
C558        C559   1.410       .  A
C559        C560   1.402       .  A
C559        N566   1.433       .  S
C560        C561   1.409       .  A
C560        H565   1.084       .  S
C561        C562   1.420       .  A
C562        N563   1.437       .  S
N563        H567   1.046       .  S
N563        H568   1.045       .  S
N566        H569   1.046       .  S
N566        H570   1.046       .  S
C571        C572   1.405       .  A
C571        C576   1.419       .  A
C571        H578   1.084       .  S
C572        C573   1.414       .  A
C573        C574   1.403       .  A
C573        N580   1.433       .  S
C574        C575   1.407       .  A
C574        H579   1.084       .  S
C575        C576   1.421       .  A
C576        N577   1.437       .  S
N577        H581   1.046       .  S
N577        H582   1.045       .  S
N580        H583   1.046       .  S
N580        H584   1.044       .  S
C585        C586   1.409       .  A
C585        C590   1.401       .  A
C585        H592   1.084       .  S
C586        C587   1.420       .  A
C587        C588   1.399       .  A
C587        N594   1.432       .  S
C588        C589   1.404       .  A
C588        H593   1.084       .  S
C589        C590   1.416       .  A
C590        N591   1.433       .  S
N591        H595   1.045       .  S
N591        H596   1.046       .  S
N594        H597   1.045       .  S
N594        H598   1.042       .  S
C599        C600   1.411       .  A
C599        C604   1.407       .  A
C599        H606   1.083       .  S
C600        C601   1.414       .  A
C601        C602   1.406       .  A
C601        N608   1.439       .  S
C602        C603   1.409       .  A
C602        H607   1.083       .  S
C603        C604   1.413       .  A
C604        N605   1.438       .  S
N605        H609   1.046       .  S
N605        H610   1.046       .  S
N608        H611   1.046       .  S
N608        H612   1.046       .  S
C613        C614   1.404       .  A
C613        C618   1.396       .  A
C613        H620   1.084       .  S
C614        C615   1.417       .  A
C615        C616   1.414       .  A
C615        N622   1.437       .  S
C616        C617   1.407       .  A
C616        H621   1.083       .  S
C617        C618   1.421       .  A
C618        N619   1.434       .  S
N619        H623   1.044       .  S
N619        H624   1.046       .  S
N622        H625   1.046       .  S
N622        H626   1.045       .  S
C627        C628   1.403       .  A
C627        C632   1.403       .  A
C627        H634   1.081       .  S
C628        C629   1.412       .  A
C629        C630   1.402       .  A
C629        N636   1.438       .  S
C630        C631   1.402       .  A
C630        H635   1.084       .  S
C631        C632   1.410       .  A
C632        N633   1.433       .  S
N633        H637   1.046       .  S
N633        H638   1.046       .  S
N636        H639   1.046       .  S
N636        H640   1.046       .  S
C641        C642   1.412       .  A
C641        C646   1.412       .  A
C641        H648   1.083       .  S
C642        C643   1.423       .  A
C643        C644   1.394       .  A
C643        N650   1.433       .  S
C644        C645   1.401       .  A
C644        H649   1.085       .  S
C645        C646   1.408       .  A
C646        N647   1.437       .  S
N647        H651   1.046       .  S
N647        H652   1.046       .  S
N650        H653   1.045       .  S
N650        H654   1.045       .  S
C655        C656   1.408       .  A
C655        C660   1.404       .  A
C655        H662   1.083       .  S
C656        C657   1.424       .  A
C657        C658   1.418       .  A
C657        N664   1.438       .  S
C658        C659   1.404       .  A
C658        H663   1.083       .  S
C659        C660   1.410       .  A
C660        N661   1.433       .  S
N661        H665   1.046       .  S
N661        H666   1.046       .  S
N664        H667   1.045       .  S
N664        H668   1.046       .  S
C669        C670   1.405       .  A
C669        C674   1.404       .  A
C669        H676   1.084       .  S
C670        C671   1.411   1_565  A
C671        C672   1.409       .  A
C671        N678   1.439       .  S
C672        C673   1.406   1_545  A
C672        H677   1.084       .  S
C673        C674   1.413       .  A
C674        N675   1.433       .  S
N675        H679   1.045       .  S
N675        H680   1.046       .  S
N678        H681   1.046       .  S
N678        H682   1.046       .  S
C683        C684   1.401       .  A
C683        C688   1.407       .  A
C683        H690   1.084       .  S
C684        C685   1.412   1_565  A
C685        C686   1.400       .  A
C685        N692   1.432       .  S
C686        C687   1.406   1_545  A
C686        H691   1.083       .  S
C687        C688   1.416       .  A
C688        N689   1.438       .  S
N689        H693   1.046       .  S
N689        H694   1.046       .  S
N692        H695   1.046       .  S
N692        H696   1.045       .  S
C697        C698   1.407       .  A
C697        C702   1.405       .  A
C697        H704   1.084       .  S
C698        C699   1.417       .  A
C699        C700   1.419       .  A
C699        N706   1.437       .  S
C700        C701   1.408       .  A
C700        H705   1.083       .  S
C701        C702   1.412       .  A
C702        N703   1.439       .  S
N703        H707   1.046   1_556  S
N703        H708   1.046   1_556  S
N706        H709   1.045       .  S
N706        H710   1.046       .  S
C711        C712   1.406       .  A
C711        C716   1.406       .  A
C711        H718   1.084       .  S
C712        C713   1.416       .  A
C713        C714   1.398   1_554  A
C713        N720   1.433   1_554  S
C714        C715   1.403   1_556  A
C714        H719   1.084       .  S
C715        C716   1.411       .  A
C716        N717   1.438       .  S
N717        H721   1.046       .  S
N717        H722   1.046       .  S
N720        H723   1.045       .  S
N720        H724   1.045       .  S
C725        C726   1.399       .  A
C725        C730   1.397       .  A
C725        H732   1.085       .  S
C726        C727   1.416       .  A
C727        C728   1.404       .  A
C727        N734   1.439       .  S
C728        C729   1.408       .  A
C728        H733   1.084       .  S
C729        C730   1.413       .  A
C730        N731   1.433       .  S
N731        H735   1.046       .  S
N731        H736   1.046       .  S
N734        H737   1.042       .  S
N734        H738   1.046       .  S
C739        C740   1.404       .  A
C739        C744   1.398       .  A
C739        H746   1.084       .  S
C740        C741   1.415       .  A
C741        C742   1.405       .  A
C741        N748   1.438       .  S
C742        C743   1.403       .  A
C742        H747   1.084       .  S
C743        C744   1.415       .  A
C744        N745   1.432   1_556  S
N745        H749   1.045       .  S
N745        H750   1.044       .  S
N748        H751   1.046       .  S
N748        H752   1.046       .  S
C753        C754   1.408       .  A
C753        C758   1.398       .  A
C753        H760   1.083       .  S
C754        C755   1.423       .  A
C755        C756   1.413       .  A
C755        N762   1.438       .  S
C756        C757   1.402       .  A
C756        H761   1.084       .  S
C757        C758   1.406       .  A
C758        N759   1.433       .  S
N759        H763   1.046       .  S
N759        H764   1.046       .  S
N762        H765   1.046       .  S
N762        H766   1.046       .  S
C767        C768   1.401       .  A
C767        C772   1.408       .  A
C767        H774   1.084       .  S
C768        C769   1.415       .  A
C769        C770   1.406       .  A
C769        N776   1.438       .  S
C770        C771   1.405       .  A
C770        H775   1.083       .  S
C771        C772   1.419       .  A
C772        N773   1.438       .  S
N773        H777   1.046       .  S
N773        H778   1.046       .  S
N776        H779   1.046       .  S
N776        H780   1.046       .  S
C781        C782   1.409       .  A
C781        C786   1.411       .  A
C781        H788   1.083       .  S
C782        C783   1.413       .  A
C783        C784   1.410       .  A
C783        N790   1.432       .  S
C784        C785   1.409       .  A
C784        H789   1.084       .  S
C785        C786   1.417       .  A
C786        N787   1.438       .  S
N787        H791   1.046       .  S
N787        H792   1.045       .  S
N790        H793   1.046       .  S
N790        H794   1.045       .  S
C795        C796   1.407       .  A
C795        C800   1.400       .  A
C795        H802   1.084       .  S
C796        C797   1.421       .  A
C797        C798   1.408       .  A
C797        N804   1.433       .  S
C798        C799   1.404       .  A
C798        H803   1.084       .  S
C799        C800   1.412       .  A
C800        N801   1.433       .  S
N801        H805   1.045       .  S
N801        H806   1.045       .  S
N804        H807   1.046       .  S
N804        H808   1.045       .  S
C809        C810   1.406       .  A
C809        C814   1.420       .  A
C809        H816   1.083       .  S
C810        C811   1.408       .  A
C811        C812   1.405       .  A
C811        N818   1.433       .  S
C812        C813   1.410       .  A
C812        H817   1.084       .  S
C813        C814   1.422       .  A
C814        N815   1.437       .  S
N815        H819   1.046       .  S
N815        H820   1.046       .  S
N818        H821   1.046       .  S
N818        H822   1.046       .  S
C823        C824   1.409       .  A
C823        C828   1.422       .  A
C823        H830   1.083       .  S
C824        C825   1.414       .  A
C825        C826   1.402       .  A
C825        N832   1.440       .  S
C826        C827   1.408       .  A
C826        H831   1.083       .  S
C827        C828   1.421       .  A
C828        N829   1.437       .  S
N829        H833   1.046       .  S
N829        H834   1.045       .  S
N832        H835   1.046       .  S
N832        H836   1.046       .  S
C837        C838   1.405       .  A
C837        C842   1.407       .  A
C837        H844   1.084       .  S
C838        C839   1.417       .  A
C839        C840   1.407       .  A
C839        N846   1.432       .  S
C840        C841   1.405       .  A
C840        H845   1.084       .  S
C841        C842   1.410       .  A
C842        N843   1.438       .  S
N843        H847   1.046       .  S
N843        H848   1.046       .  S
N846        H849   1.046       .  S
N846        H850   1.044       .  S
C851        C852   1.404       .  A
C851        C856   1.394       .  A
C851        H858   1.084       .  S
C852        C853   1.419       .  A
C853        C854   1.413       .  A
C853        N860   1.437       .  S
C854        C855   1.404       .  A
C854        H859   1.084       .  S
C855        C856   1.410       .  A
C856        N857   1.434       .  S
N857        H861   1.045       .  S
N857        H862   1.046       .  S
N860        H863   1.045       .  S
N860        H864   1.046       .  S
C865        C866   1.404       .  A
C865        C870   1.399       .  A
C865        H872   1.084       .  S
C866        C867   1.412       .  A
C867        C868   1.403       .  A
C867        N874   1.438       .  S
C868        C869   1.405       .  A
C868        H873   1.084       .  S
C869        C870   1.415       .  A
C870        N871   1.431       .  S
N871        H875   1.045       .  S
N871        H876   1.045       .  S
N874        H877   1.046       .  S
N874        H878   1.046       .  S
C879        C880   1.405       .  A
C879        C884   1.411       .  A
C879        H886   1.083       .  S
C880        C881   1.419       .  A
C881        C882   1.402       .  A
C881        N888   1.433       .  S
C882        C883   1.402       .  A
C882        H887   1.084       .  S
C883        C884   1.423       .  A
C884        N885   1.438       .  S
N885        H889   1.046       .  S
N885        H890   1.046       .  S
N888        H891   1.046       .  S
N888        H892   1.046       .  S
C893        C894   1.404       .  A
C893        C898   1.409       .  A
C893        H900   1.084       .  S
C894        C895   1.416       .  A
C895        C896   1.411       .  A
C895        N902   1.438       .  S
C896        C897   1.408       .  A
C896        H901   1.083       .  S
C897        C898   1.416       .  A
C898        N899   1.437       .  S
N899        H903   1.046       .  S
N899        H904   1.046       .  S
N902        H905   1.046       .  S
N902        H906   1.046       .  S
C907        C908   1.409       .  A
C907        C912   1.401       .  A
C907        H914   1.084       .  S
C908        C909   1.420       .  A
C909        C910   1.413       .  A
C909        N916   1.437       .  S
C910        C911   1.404       .  A
C910        H915   1.084       .  S
C911        C912   1.415       .  A
C912        N913   1.433       .  S
N913        H917   1.044       .  S
N913        H918   1.046       .  S
N916        H919   1.045       .  S
N916        H920   1.046       .  S
C921        C922   1.408       .  A
C921        C926   1.402       .  A
C921        H928   1.084       .  S
C922        C923   1.424       .  A
C923        C924   1.418       .  A
C923        N930   1.431       .  S
C924        C925   1.410       .  A
C924        H929   1.083       .  S
C925        C926   1.413       .  A
C926        N927   1.434       .  S
N927        H931   1.046       .  S
N927        H932   1.046   1_554  S
N930        H933   1.045       .  S
N930        H934   1.045       .  S
C935        C936   1.408       .  A
C935        C940   1.405       .  A
C935        H942   1.084       .  S
C936        C937   1.423       .  A
C937        C938   1.419       .  A
C937        N944   1.438       .  S
C938        C939   1.405       .  A
C938        H943   1.083       .  S
C939        C940   1.410       .  A
C940        N941   1.433       .  S
N941        H945   1.046       .  S
N941        H946   1.046       .  S
N944        H947   1.046       .  S
N944        H948   1.046       .  S
C949        C950   1.409       .  A
C949        C954   1.401       .  A
C949        H956   1.083       .  S
C950        C951   1.417       .  A
C951        C952   1.418       .  A
C951        N958   1.437       .  S
C952        C953   1.408       .  A
C952        H957   1.083       .  S
C953        C954   1.411       .  A
C954        N955   1.439       .  S
N955        H959   1.046       .  S
N955        H960   1.046       .  S
N958        H961   1.046       .  S
N958        H962   1.046       .  S
C963        C964   1.405       .  A
C963        C968   1.405       .  A
C963        H970   1.084       .  S
C964        C965   1.411       .  A
C965        C966   1.408       .  A
C965        N972   1.438       .  S
C966        C967   1.407       .  A
C966        H971   1.084       .  S
C967        C968   1.417       .  A
C968        N969   1.432       .  S
N969        H973   1.045       .  S
N969        H974   1.045       .  S
N972        H975   1.046       .  S
N972        H976   1.046       .  S
C977        C978   1.402       .  A
C977        C982   1.413       .  A
C977        H984   1.084       .  S
C978        C979   1.409       .  A
C979        C980   1.396       .  A
C979        N986   1.433       .  S
C980        C981   1.406       .  A
C980        H985   1.084       .  S
C981        C982   1.421       .  A
C982        N983   1.438       .  S
N983        H987   1.046       .  S
N983        H988   1.045       .  S
N986        H989   1.046       .  S
N986        H990   1.045       .  S
C991        C992   1.401       .  A
C991        C996   1.401       .  A
C991        H998   1.084       .  S
C992        C993   1.411       .  A
C993        C994   1.416       .  A
C993       N1000   1.436       .  S
C994        C995   1.411       .  A
C994        H999   1.083       .  S
C995        C996   1.418       .  A
C996        N997   1.433       .  S
N997       H1001   1.046       .  S
N997       H1002   1.046       .  S
N1000      H1003   1.046       .  S
N1000      H1004   1.046       .  S
C1005      C1006   1.406   1_665  A
C1005      C1010   1.405       .  A
C1005      H1012   1.083       .  S
C1006      C1007   1.415       .  A
C1007      C1008   1.406       .  A
C1007      N1014   1.438       .  S
C1008      C1009   1.407       .  A
C1008      H1013   1.083       .  S
C1009      C1010   1.416   1_445  A
C1010      N1011   1.439       .  S
N1011      H1015   1.046       .  S
N1011      H1016   1.046   1_655  S
N1014      H1017   1.046       .  S
N1014      H1018   1.046       .  S
C1019      C1020   1.410   1_666  A
C1019      C1024   1.406       .  A
C1019      H1026   1.083   1_556  S
C1020      C1021   1.410       .  A
C1021      C1022   1.406   1_554  A
C1021      N1028   1.438       .  S
C1022      C1023   1.409       .  A
C1022      H1027   1.083       .  S
C1023      C1024   1.411   1_445  A
C1024      N1025   1.439       .  S
N1025      H1029   1.046       .  S
N1025      H1030   1.046   1_655  S
N1028      H1031   1.046       .  S
N1028      H1032   1.046       .  S
C1033      C1034   1.410       .  A
C1033      C1038   1.406       .  A
C1033      H1040   1.084       .  S
C1034      C1035   1.419       .  A
C1035      C1036   1.395       .  A
C1035      N1042   1.433       .  S
C1036      C1037   1.404       .  A
C1036      H1041   1.084       .  S
C1037      C1038   1.416       .  A
C1038      N1039   1.432       .  S
N1039      H1043   1.045       .  S
N1039      H1044   1.045       .  S
N1042      H1045   1.044       .  S
N1042      H1046   1.046       .  S
C1047      C1048   1.404       .  A
C1047      C1052   1.406       .  A
C1047      H1054   1.083       .  S
C1048      C1049   1.415       .  A
C1049      C1050   1.401       .  A
C1049      N1056   1.433       .  S
C1050      C1051   1.399       .  A
C1050      H1055   1.083       .  S
C1051      C1052   1.413       .  A
C1052      N1053   1.438       .  S
N1053      H1057   1.046       .  S
N1053      H1058   1.046       .  S
N1056      H1059   1.046       .  S
N1056      H1060   1.046       .  S
C1061      C1062   1.406       .  A
C1061      C1066   1.399       .  A
C1061      H1068   1.084       .  S
C1062      C1063   1.418       .  A
C1063      C1064   1.408       .  A
C1063      N1070   1.433       .  S
C1064      C1065   1.403       .  A
C1064      H1069   1.084       .  S
C1065      C1066   1.409       .  A
C1066      N1067   1.433       .  S
N1067      H1071   1.046       .  S
N1067      H1072   1.045       .  S
N1070      H1073   1.046       .  S
N1070      H1074   1.045       .  S
C1075      C1076   1.407       .  A
C1075      C1080   1.406       .  A
C1075      H1082   1.084       .  S
C1076      C1077   1.418       .  A
C1077      C1078   1.410       .  A
C1077      N1084   1.438       .  S
C1078      C1079   1.402       .  A
C1078      H1083   1.084       .  S
C1079      C1080   1.412       .  A
C1080      N1081   1.432       .  S
N1081      H1085   1.046       .  S
N1081      H1086   1.045       .  S
N1084      H1087   1.046       .  S
N1084      H1088   1.046       .  S
