geometry optimzed in LAMMPS
_audit_creation_date              2020-12-01 
_audit_creation_method            'lammps2cif' 
_symmetry_space_group_name_H-M    'P1' 
_symmetry_Int_Tables_number       1 
_symmetry_cell_setting            triclinic 
loop_ 
_symmetry_equiv_pos_as_xyz 
  x,y,z 
_cell_length_a                    58.79460079 
_cell_length_b                    58.58414161293905 
_cell_length_c                    58.487964981884964 
_cell_angle_alpha                 89.88568254298451 
_cell_angle_beta                  89.93435169646511 
_cell_angle_gamma                 90.03985451818953 
loop_ 
_atom_site_label 
_atom_site_type_symbol 
_atom_site_fract_x 
_atom_site_fract_y 
_atom_site_fract_z 
_atom_site_charge 
C1          C  0.74028556  0.01606871  0.01681539     0.87300
C2          C  0.76629085  0.02051764  0.01974242    -0.53000
C3          C  0.78011378  0.00703107  0.00645946     0.10200
C4          C  0.76637124  0.99145712  0.99041412     0.21100
C5          C  0.73685746  0.02053209  0.99110878    -0.53700
C6          C  0.74994949  0.00723313  0.97731432     0.10300
C7          C  0.73757477  0.99000835  0.02001465    -0.53200
C8          C  0.75133075  0.97711589  0.00629444     0.10900
H9          H  0.77306122  0.03395440  0.03029724     0.15400
H10         H  0.77697008  0.98073602  0.97898260     0.01100
H11         H  0.72536061  0.03337167  0.98441814     0.15700
H12         H  0.72464692  0.98269969  0.03102181     0.15500
C13         C  0.73949310  0.72348191  0.70442925     0.87300
C14         C  0.73596981  0.74915534  0.69975796    -0.53000
C15         C  0.74964419  0.76323691  0.71231280     0.10200
C16         C  0.76568652  0.75023597  0.72844676     0.21100
C17         C  0.76525423  0.71882241  0.70169795    -0.53700
C18         C  0.77881845  0.73329645  0.71371296     0.10300
C19         C  0.73624426  0.72121205  0.73073734    -0.53200
C20         C  0.74986487  0.73554358  0.74325657     0.10900
H21         H  0.72233429  0.75530631  0.68900324     0.15400
H22         H  0.77716374  0.76141893  0.73854665     0.01100
H23         H  0.77225310  0.70451298  0.69238890     0.15700
H24         H  0.72513635  0.70870203  0.73863006     0.15500
C25         C  0.03231860  0.00790022  0.72052016     0.87300
C26         C  0.03348860  0.01445590  0.74622706    -0.53000
C27         C  0.02022107  0.00125695  0.76014514     0.10200
C28         C  0.00701266  0.98263452  0.74736012     0.21100
C29         C  0.03822864  0.98232476  0.72009787    -0.53700
C30         C  0.02523215  0.96913479  0.73424545     0.10300
C31         C  0.00650459  0.00934483  0.71557979    -0.53200
C32         C  0.99329467  0.99549743  0.72900240     0.10900
H33         H  0.04340709  0.02845316  0.75309968     0.15400
H34         H  0.99643101  0.97201047  0.75884223     0.01100
H35         H  0.05135129  0.97519889  0.70914935     0.15700
H36         H  0.99916126  0.02081762  0.70306225     0.15500
C37         C  0.22667991  0.21928537  0.72091545     0.87300
C38         C  0.25147241  0.21024594  0.72140602    -0.53000
C39         C  0.26598894  0.22267835  0.73476378     0.10200
C40         C  0.25427773  0.24246827  0.74720226     0.21100
C41         C  0.21997708  0.21955436  0.74664055    -0.53700
C42         C  0.23448805  0.23142306  0.76044354     0.10300
C43         C  0.22843339  0.24479944  0.71490347    -0.53200
C44         C  0.24298969  0.25682567  0.72846195     0.10900
H45         H  0.25719508  0.19554672  0.71179501     0.15400
H46         H  0.26600258  0.25256867  0.75801096     0.01100
H47         H  0.20530037  0.21126110  0.75367978     0.15700
H48         H  0.21851862  0.25277950  0.70142330     0.15500
Zn49       Zn  0.48192148  0.21936142  0.72005469     1.49700
Zn50       Zn  0.52002516  0.22304083  0.75800652     1.49400
Zn51       Zn  0.51938445  0.25786673  0.71604279     1.49100
Zn52       Zn  0.48033509  0.26179392  0.75522852     1.49500
O53         O  0.50032301  0.24074143  0.73755423    -1.83400
O54         O  0.48754065  0.18670951  0.72901469    -0.74000
O55         O  0.55341030  0.22920985  0.75192908    -0.73800
O56         O  0.51197820  0.25052801  0.68263817    -0.73300
O57         O  0.51324841  0.18898738  0.75679287    -0.74000
O58         O  0.48630594  0.22315998  0.68623880    -0.73600
O59         O  0.55290704  0.25387627  0.72304940    -0.74200
O60         O  0.48658490  0.29517304  0.74608780    -0.73600
O61         O  0.51500948  0.23314597  0.79019653    -0.74300
O62         O  0.51398678  0.29114895  0.72043612    -0.73700
O63         O  0.48794832  0.25949363  0.78938927    -0.74200
O64         O  0.44635541  0.25366056  0.75023202    -0.74100
O65         O  0.44898045  0.22466403  0.72605057    -0.73900
C66         C  0.49977005  0.17739128  0.74431575     0.77900
C67         C  0.56373206  0.24239901  0.73803684     0.78400
C68         C  0.49795599  0.23648226  0.67369212     0.77300
C69         C  0.50106832  0.30385161  0.73224153     0.77700
C70         C  0.50233553  0.24746684  0.80043778     0.78900
C71         C  0.43703300  0.23802890  0.73816348     0.77900
C72         C  0.53286838  0.51418698  0.72486450     0.87300
C73         C  0.53733893  0.51261892  0.75096019    -0.53000
C74         C  0.52288504  0.49818641  0.76243107     0.10200
C75         C  0.50476276  0.48734766  0.74703290     0.21100
C76         C  0.53242915  0.48923499  0.71633396    -0.53700
C77         C  0.51766626  0.47529141  0.72781381     0.10300
C78         C  0.50774112  0.52203321  0.72454362    -0.53200
C79         C  0.49293626  0.50772663  0.73544052     0.10900
H80         H  0.54921794  0.52333060  0.76004084     0.15400
H81         H  0.49320668  0.47575877  0.75659659     0.01100
H82         H  0.54333010  0.48304655  0.70269042     0.15700
H83         H  0.50248803  0.53830751  0.71763933     0.15500
C84         C  0.53224612  0.21467392  0.00718890     0.87300
C85         C  0.50636095  0.20908276  0.00915525    -0.53000
C86         C  0.49228284  0.22408259  0.99812130     0.10200
C87         C  0.50538674  0.24323073  0.98586219     0.21100
C88         C  0.53620703  0.21601554  0.98120690    -0.53700
C89         C  0.52208565  0.23080842  0.97010081     0.10300
C90         C  0.53366150  0.23961450  0.01582112    -0.53200
C91         C  0.51995303  0.25448271  0.00425750     0.10900
H92         H  0.49946969  0.19452326  0.01786666     0.15400
H93         H  0.49446841  0.25573890  0.97673328     0.01100
H94         H  0.54933103  0.20631681  0.97254684     0.15700
H95         H  0.54518695  0.24519808  0.02917158     0.15500
Zn96       Zn  0.78493025  0.76365762  0.99814232     1.49700
Zn97       Zn  0.78462522  0.72429432  0.96040586     1.49400
Zn98       Zn  0.74720810  0.72401784  0.00126410     1.49100
Zn99       Zn  0.74623373  0.76202105  0.96027698     1.49500
O100        O  0.76558830  0.74330455  0.98013626    -1.83400
O101        O  0.81799506  0.75620571  0.99342972    -0.74000
O102        O  0.77779483  0.69125261  0.96667803    -0.73800
O103        O  0.75279267  0.73292986  0.03499985    -0.73300
O104        O  0.81798943  0.72807266  0.96809062    -0.74000
O105        O  0.77898513  0.75983265  0.03179421    -0.73600
O106        O  0.75409093  0.68984399  0.99621046    -0.74200
O107        O  0.71361116  0.75470495  0.96652432    -0.73600
O108        O  0.77898312  0.73055808  0.92639686    -0.74300
O109        O  0.71342729  0.72933103  0.99483286    -0.73700
O110        O  0.75212923  0.75710081  0.92630627    -0.74200
O111        O  0.74958795  0.79546569  0.96750022    -0.74100
O112        O  0.77816333  0.79699509  0.99207877    -0.73900
C113        C  0.82849944  0.74103336  0.98201402     0.77900
C114        C  0.76612253  0.67980848  0.98101852     0.78400
C115        C  0.76577446  0.74787429  0.04415469     0.77300
C116        C  0.70290279  0.74205349  0.98061471     0.77700
C117        C  0.76541366  0.74368123  0.91555999     0.78900
C118        C  0.76266551  0.80685722  0.98048240     0.77900
C119        C  0.88421979  0.36019646  0.86367395    -0.01700
C120        C  0.98832766  0.46431214  0.76501204     0.87300
C121        C  0.01369283  0.45674961  0.76347794    -0.53000
C122        C  0.02697977  0.47015269  0.74964025     0.10200
C123        C  0.01376073  0.48992761  0.73851944     0.21100
C124        C  0.98966216  0.48949568  0.77225336    -0.53700
C125        C  0.00293914  0.50285728  0.75862610     0.10300
C126        C  0.98106574  0.46442763  0.73955597    -0.53200
C127        C  0.99388904  0.47839244  0.72585709     0.10900
H128        H  0.02098326  0.44219984  0.77223637     0.15400
H129        H  0.02419634  0.50107714  0.72736552     0.01100
H130        H  0.98040266  0.49630435  0.78680702     0.15700
H131        H  0.96726474  0.45410343  0.73288728     0.15500
C132        C  0.78370259  0.46786846  0.96175639     0.87300
C133        C  0.78791329  0.49365589  0.95732116    -0.53000
C134        C  0.77556878  0.50777375  0.97127806     0.10200
C135        C  0.75932352  0.49504219  0.98722698     0.21100
C136        C  0.78699062  0.46447511  0.98771515    -0.53700
C137        C  0.77403338  0.47852055  0.00100408     0.10300
C138        C  0.75745842  0.46565912  0.95827884    -0.53200
C139        C  0.74497545  0.47997232  0.97174447     0.10900
H140        H  0.79919566  0.49998576  0.94407606     0.15400
H141        H  0.74884280  0.50659186  0.99800375     0.01100
H142        H  0.79927586  0.45260008  0.99464666     0.15700
H143        H  0.74916034  0.45406173  0.94662411     0.15500
C144        C  0.23096222  0.01399502  0.52008646     0.87300
C145        C  0.23007708  0.98834295  0.52614714    -0.53000
C146        C  0.24509027  0.97505118  0.51423860     0.10200
C147        C  0.25882751  0.98852069  0.49639482     0.21100
C148        C  0.25620584  0.02110329  0.52187003    -0.53700
C149        C  0.27097704  0.00768776  0.50971574     0.10300
C150        C  0.22632382  0.01381920  0.49391388    -0.53200
C151        C  0.24103416  0.00061012  0.48168876     0.10900
H152        H  0.21824008  0.98128187  0.53851349     0.15400
H153        H  0.27019959  0.97770129  0.48592549     0.01100
H154        H  0.26130265  0.03630645  0.53092119     0.15700
H155        H  0.21258518  0.02278970  0.48545264     0.15500
C156        C  0.12673862  0.11670514  0.61806826    -0.01700
C157        C  0.03803035  0.71140671  0.01091266     0.87300
C158        C  0.01210613  0.70778043  0.01530546    -0.53000
C159        C  0.99805959  0.72068516  0.00170156     0.10200
C160        C  0.01139633  0.73624563  0.98521637     0.21100
C161        C  0.04025494  0.70671066  0.98493280    -0.53700
C162        C  0.02653956  0.72000053  0.97154286     0.10300
C163        C  0.04133095  0.73728900  0.01378597    -0.53200
C164        C  0.02733340  0.75019855  0.00053176     0.10900
H165        H  0.00554638  0.69632150  0.02805873     0.15400
H166        H  0.00069604  0.74703575  0.97390517     0.01100
H167        H  0.05219729  0.69459791  0.97776640     0.15700
H168        H  0.05351537  0.74475198  0.02555298     0.15500
C169        C  0.23917355  0.50783980  0.01569174     0.87300
C170        C  0.23950948  0.48249354  0.02280053    -0.53000
C171        C  0.25407031  0.46916949  0.01039401     0.10200
C172        C  0.26659304  0.48233680  0.99135023     0.21100
C173        C  0.26424736  0.51576269  0.01582257    -0.53700
C174        C  0.27858326  0.50230757  0.00334402     0.10300
C175        C  0.23363700  0.50705687  0.98973383    -0.53200
C176        C  0.24768508  0.49349055  0.97708614     0.10900
H177        H  0.22883650  0.47564873  0.03634920     0.15400
H178        H  0.27847862  0.47185367  0.98123799     0.01100
H179        H  0.27022246  0.53050085  0.02531143     0.15700
H180        H  0.22086179  0.51721176  0.98119920     0.15500
C181        C  0.23682520  0.71936795  0.21941775     0.87300
C182        C  0.23106105  0.74501953  0.21716957    -0.53000
C183        C  0.24461196  0.75907453  0.22983780     0.10200
C184        C  0.26369488  0.74632743  0.24250443     0.21100
C185        C  0.26221169  0.71843242  0.21195140    -0.53700
C186        C  0.27620704  0.73272571  0.22397403     0.10300
C187        C  0.23723929  0.71467967  0.24529700    -0.53200
C188        C  0.25132787  0.72865707  0.25733073     0.10900
H189        H  0.21732256  0.75144287  0.20700983     0.15400
H190        H  0.27502688  0.75761947  0.25259857     0.01100
H191        H  0.26861063  0.70738937  0.19852688     0.15700
H192        H  0.22659111  0.70190453  0.25351367     0.15500
C193        C  0.14121001  0.61367734  0.11680425    -0.01700
C194        C  0.52910216  0.72213041  0.52440754     0.87300
C195        C  0.50313857  0.72253416  0.52879723    -0.53000
C196        C  0.49139299  0.73693669  0.51462104     0.10200
C197        C  0.50639235  0.74895951  0.49685960     0.21100
C198        C  0.52992525  0.71508493  0.49878243    -0.53700
C199        C  0.51845277  0.72936997  0.48422973     0.10300
C200        C  0.53681869  0.74732083  0.52471411    -0.53200
C201        C  0.52503747  0.76135173  0.51029733     0.10900
H202        H  0.49457895  0.71138363  0.54084898     0.15400
H203        H  0.49653744  0.76058038  0.48565498     0.01100
H204        H  0.53727147  0.69920876  0.49311474     0.15700
H205        H  0.55034723  0.75352441  0.53570157     0.15500
Zn206      Zn  0.27735669  0.72448319  0.47242068     1.49700
Zn207      Zn  0.23751326  0.72166154  0.51104421     1.49400
Zn208      Zn  0.27625231  0.76061676  0.51182785     1.49100
Zn209      Zn  0.23771672  0.76172008  0.47350111     1.49500
O210        O  0.25704250  0.74192987  0.49225889    -1.83400
O211        O  0.27324927  0.69129692  0.47878743    -0.74000
O212        O  0.24342858  0.72683046  0.54514574    -0.73800
O213        O  0.30980702  0.75564344  0.50692588    -0.73300
O214        O  0.24574747  0.68855050  0.50473390    -0.74000
O215        O  0.31091028  0.73091252  0.47829287    -0.73600
O216        O  0.27118848  0.75255634  0.54437899    -0.74200
O217        O  0.24146851  0.79489987  0.48210844    -0.73600
O218        O  0.20361473  0.72629004  0.50362800    -0.74300
O219        O  0.26868581  0.79370480  0.50830257    -0.73700
O220        O  0.20467601  0.75380365  0.47759667    -0.74200
O221        O  0.24386533  0.75732792  0.43993672    -0.74100
O222        O  0.26968788  0.72967497  0.43914852    -0.73900
C223        C  0.26046704  0.67933897  0.49166150     0.77900
C224        C  0.25820375  0.73912501  0.55533305     0.78400
C225        C  0.32095986  0.74319021  0.49312652     0.77300
C226        C  0.25425697  0.80483568  0.49658895     0.77700
C227        C  0.19344879  0.73969537  0.48976051     0.78900
C228        C  0.25625612  0.74336496  0.42891242     0.77900
Zn229      Zn  0.28051018  0.47194105  0.72344461     1.49700
Zn230      Zn  0.24021316  0.50987811  0.72269052     1.49400
Zn231      Zn  0.24178094  0.46983057  0.76061187     1.49100
Zn232      Zn  0.27796552  0.50989882  0.76227193     1.49500
O233        O  0.26002764  0.49057106  0.74200640    -1.83400
O234        O  0.27494842  0.47805349  0.69035600    -0.74000
O235        O  0.20668129  0.50260264  0.72924605    -0.73800
O236        O  0.24784317  0.43682006  0.75420536    -0.73300
O237        O  0.24674495  0.50320380  0.68894615    -0.74000
O238        O  0.27470972  0.43814705  0.72751729    -0.73600
O239        O  0.20897575  0.47431811  0.75446410    -0.74200
O240        O  0.27003804  0.50450822  0.79547617    -0.73600
O241        O  0.24574546  0.54406231  0.72895035    -0.74300
O242        O  0.24546836  0.47585336  0.79384818    -0.73700
O243        O  0.27196049  0.54296132  0.75596333    -0.74200
O244        O  0.31148383  0.50516602  0.75732520    -0.74100
O245        O  0.31343837  0.47923150  0.72982452    -0.73900
C246        C  0.26113569  0.49029290  0.67895137     0.77900
C247        C  0.19725745  0.48781082  0.74223625     0.78400
C248        C  0.26084332  0.42697352  0.73996539     0.77300
C249        C  0.25653200  0.49053188  0.80523242     0.77700
C250        C  0.25902092  0.55437240  0.74277685     0.78900
C251        C  0.32307630  0.49287306  0.74367297     0.77900
Zn252      Zn  0.99224847  0.75402948  0.75635702     1.49700
Zn253      Zn  0.03320538  0.71752922  0.75466357     1.49400
Zn254      Zn  0.99265781  0.71417326  0.71877644     1.49100
Zn255      Zn  0.02839443  0.75392096  0.71505507     1.49500
O256        O  0.01152149  0.73499625  0.73643290    -1.83400
O257        O  0.00025549  0.74864987  0.78985596    -0.74000
O258        O  0.02739129  0.68383435  0.75149600    -0.73800
O259        O  0.96011014  0.71883049  0.72642932    -0.73300
O260        O  0.02897938  0.72437151  0.78788648    -0.74000
O261        O  0.95847216  0.74713094  0.75125770    -0.73600
O262        O  0.99955775  0.68156022  0.72592656    -0.74200
O263        O  0.01858901  0.74914325  0.68275112    -0.73600
O264        O  0.06592542  0.72527071  0.74678800    -0.74300
O265        O  0.99448833  0.71996822  0.68491736    -0.73700
O266        O  0.06182956  0.74890228  0.71749681    -0.74200
O267        O  0.02352132  0.78690696  0.72188810    -0.74100
O268        O  0.99781325  0.78758960  0.74969139    -0.73900
C269        C  0.01535634  0.73648134  0.79965441     0.77900
C270        C  0.01335527  0.67217894  0.73974023     0.78400
C271        C  0.94852911  0.73240982  0.73871906     0.77300
C272        C  0.00491114  0.73518715  0.67346605     0.77700
C273        C  0.07443541  0.73839480  0.73161480     0.78900
C274        C  0.01094795  0.79788504  0.73572572     0.77900
C275        C  0.28192907  0.76559869  0.76501234     0.87300
C276        C  0.28279097  0.73983883  0.77073874    -0.53000
C277        C  0.26840071  0.72672847  0.75802004     0.10200
C278        C  0.25477635  0.74023400  0.74042219     0.21100
C279        C  0.28670066  0.76636906  0.73882378    -0.53700
C280        C  0.27231973  0.75320405  0.72612306     0.10300
C281        C  0.25652400  0.77259787  0.76616923    -0.53200
C282        C  0.24217337  0.75906268  0.75359781     0.10900
H283        H  0.29434637  0.73257474  0.78325945     0.15400
H284        H  0.24356250  0.72904667  0.73003861     0.01100
H285        H  0.29978754  0.77643552  0.73067504     0.15700
H286        H  0.25108070  0.78805384  0.77449948     0.15500
Zn287      Zn  0.48988489  0.76283664  0.26733648     1.49700
Zn288      Zn  0.52779748  0.72278011  0.26938719     1.49400
Zn289      Zn  0.48929379  0.72105706  0.23148528     1.49100
Zn290      Zn  0.52870840  0.75721028  0.22779684     1.49500
O291        O  0.50871218  0.74123033  0.24925835    -1.83400
O292        O  0.49412482  0.75654585  0.30178432    -0.74000
O293        O  0.52305416  0.68909832  0.26422489    -0.73800
O294        O  0.45674026  0.72799404  0.23708789    -0.73300
O295        O  0.51983228  0.72865423  0.30213775    -0.74000
O296        O  0.45563519  0.75850214  0.25958797    -0.73600
O297        O  0.49460083  0.68822843  0.23921337    -0.74200
O298        O  0.52089993  0.75092249  0.19482344    -0.73600
O299        O  0.56102541  0.72995899  0.26517573    -0.74300
O300        O  0.49335373  0.72529762  0.19762381    -0.73700
O301        O  0.56197996  0.75065399  0.23335935    -0.74200
O302        O  0.52543193  0.79063963  0.23244979    -0.74100
O303        O  0.50013533  0.79588456  0.26005759    -0.73900
C304        C  0.50640619  0.74209509  0.31255904     0.77900
C305        C  0.50861525  0.67816628  0.25232220     0.78400
C306        C  0.44557643  0.74334434  0.24752298     0.77300
C307        C  0.50609042  0.73805929  0.18557193     0.77700
C308        C  0.57205609  0.74077700  0.24988793     0.78900
C309        C  0.51450938  0.80387933  0.24561644     0.77900
C310        C  0.39286135  0.85952573  0.86580027    -0.01700
C311        C  0.48680884  0.96565542  0.76002806     0.87300
C312        C  0.48760954  0.96351700  0.73365807    -0.53000
C313        C  0.50059491  0.97978745  0.72282004     0.10200
C314        C  0.51131520  0.99701333  0.73946005     0.21100
C315        C  0.51260957  0.96551585  0.76625619    -0.53700
C316        C  0.52517799  0.98212277  0.75578698     0.10300
C317        C  0.47910228  0.99038156  0.76470530    -0.53200
C318        C  0.49139648  0.00663500  0.75347871     0.10900
H319        H  0.47921197  0.95005752  0.72446626     0.15400
H320        H  0.52190252  0.01034443  0.73113795     0.01100
H321        H  0.52115701  0.95221696  0.77581543     0.15700
H322        H  0.46484704  0.99462304  0.77572993     0.15500
C323        C  0.49272177  0.76276824  0.97400338     0.87300
C324        C  0.48691021  0.76620581  0.99953294    -0.53000
C325        C  0.50068960  0.75451818  0.01432312     0.10200
C326        C  0.51890692  0.73998700  0.00209141     0.21100
C327        C  0.51826063  0.76794277  0.97144211    -0.53700
C328        C  0.53195440  0.75661607  0.98645010     0.10300
C329        C  0.49132401  0.73635388  0.97149603    -0.53200
C330        C  0.50530505  0.72456199  0.98591237     0.10900
H331        H  0.47216398  0.77576853  0.00504150     0.15400
H332        H  0.52992925  0.73006014  0.01384772     0.01100
H333        H  0.52496808  0.77945240  0.95849469     0.15700
H334        H  0.47956114  0.72720645  0.96063581     0.15500
C335        C  0.73942929  0.51926932  0.51019811     0.87300
C336        C  0.73520888  0.52284809  0.48435551    -0.53000
C337        C  0.74931657  0.51063216  0.47025874     0.10200
C338        C  0.76637525  0.49571560  0.48364703     0.21100
C339        C  0.73750299  0.49297232  0.51322196    -0.53700
C340        C  0.75150888  0.48081390  0.49917382     0.10300
C341        C  0.76505794  0.52351982  0.51415936    -0.53200
C342        C  0.77908312  0.51195568  0.49965614     0.10900
H343        H  0.72111911  0.53296737  0.47828583     0.15400
H344        H  0.77813153  0.48535552  0.47310725     0.01100
H345        H  0.72641265  0.48431771  0.52523580     0.15700
H346        H  0.77164219  0.53437738  0.52758946     0.15500
Zn347      Zn  0.78401122  0.51013993  0.21748327     1.49700
Zn348      Zn  0.78222970  0.47192777  0.25649931     1.49400
Zn349      Zn  0.74435849  0.51218886  0.25472059     1.49100
Zn350      Zn  0.74377226  0.47376409  0.21683309     1.49500
O351        O  0.76367658  0.49188466  0.23653003    -1.83400
O352        O  0.81678373  0.50289989  0.22385998    -0.74000
O353        O  0.77563285  0.47876113  0.28982874    -0.73800
O354        O  0.75202652  0.54548090  0.24915401    -0.73300
O355        O  0.81627698  0.47696066  0.25153611    -0.74000
O356        O  0.78052142  0.54354562  0.22425063    -0.73600
O357        O  0.74969065  0.50632059  0.28792128    -0.74200
O358        O  0.71034757  0.47880785  0.22384256    -0.73600
O359        O  0.77447015  0.43847905  0.25075312    -0.74300
O360        O  0.71074138  0.50608918  0.24999547    -0.73700
O361        O  0.74873314  0.44067553  0.22304900    -0.74200
O362        O  0.75027939  0.47935881  0.18323982    -0.74100
O363        O  0.77842224  0.50451569  0.18395425    -0.73900
C364        C  0.82716508  0.48983854  0.23772440     0.77900
C365        C  0.76225434  0.49290760  0.29943291     0.78400
C366        C  0.76749904  0.55504347  0.23721712     0.77300
C367        C  0.69990239  0.49172784  0.23781461     0.77700
C368        C  0.76069180  0.42897813  0.23687990     0.78900
C369        C  0.76488550  0.49172433  0.17285882     0.77900
C370        C  0.73525604  0.21990813  0.21581809     0.87300
C371        C  0.72697040  0.24492194  0.21679215    -0.53000
C372        C  0.73957281  0.25884133  0.23063067     0.10200
C373        C  0.76002111  0.24673672  0.24166356     0.21100
C374        C  0.76058318  0.22211670  0.20838001    -0.53700
C375        C  0.77333677  0.23649073  0.22156718     0.10300
C376        C  0.73735958  0.21200959  0.24103286    -0.53200
C377        C  0.75015672  0.22608454  0.25454743     0.10900
H378        H  0.71267659  0.25117734  0.20684936     0.15400
H379        H  0.77041115  0.25789448  0.25277003     0.01100
H380        H  0.76867481  0.21217163  0.19509757     0.15700
H381        H  0.72899355  0.19688655  0.24774181     0.15500
Zn382      Zn  0.77876465  0.01472639  0.76261736     1.49700
Zn383      Zn  0.73886103  0.01586636  0.72505501     1.49400
Zn384      Zn  0.77761056  0.97682663  0.72468157     1.49100
Zn385      Zn  0.74098240  0.97599964  0.76319996     1.49500
O386        O  0.75885294  0.99609130  0.74377350    -1.83400
O387        O  0.77210889  0.04790627  0.75870442    -0.74000
O388        O  0.74770128  0.01340416  0.69114935    -0.73800
O389        O  0.81104224  0.98094638  0.73073389    -0.73300
O390        O  0.74299192  0.04896588  0.73466426    -0.74000
O391        O  0.81183789  0.00942217  0.75562374    -0.73600
O392        O  0.77344210  0.98595544  0.69257639    -0.74200
O393        O  0.74528527  0.94268381  0.75628499    -0.73600
O394        O  0.70512550  0.00756799  0.72996785    -0.74300
O395        O  0.76902233  0.94369992  0.72691283    -0.73700
O396        O  0.70850724  0.98151379  0.75706045    -0.74200
O397        O  0.74600957  0.98229941  0.79657819    -0.74100
O398        O  0.77299195  0.00890980  0.79567010    -0.73900
C399        C  0.75710255  0.05904653  0.74774171     0.77900
C400        C  0.76213958  0.00043810  0.68123198     0.78400
C401        C  0.82205680  0.99519492  0.74284612     0.77300
C402        C  0.75597962  0.93264252  0.74033078     0.77700
C403        C  0.69611285  0.99362360  0.74419270     0.78900
C404        C  0.75909940  0.99637279  0.80660329     0.77900
C405        C  0.77247451  0.26888608  0.76394494     0.87300
C406        C  0.77199673  0.24384659  0.77201044    -0.53000
C407        C  0.75901739  0.22976010  0.75887488     0.10200
C408        C  0.74714623  0.24203143  0.73887802     0.21100
C409        C  0.77911258  0.26829514  0.73846444    -0.53700
C410        C  0.76635041  0.25387519  0.72539025     0.10300
C411        C  0.74678191  0.27529837  0.76363407    -0.53200
C412        C  0.73365678  0.26150849  0.75016892     0.10900
H413        H  0.78148445  0.23761890  0.78665100     0.15400
H414        H  0.73643826  0.23065667  0.72834027     0.01100
H415        H  0.79272305  0.27866356  0.73134627     0.15700
H416        H  0.73896701  0.28854046  0.77384671     0.15500
Zn417      Zn  0.73862469  0.22558679  0.47016151     1.49700
Zn418      Zn  0.73801984  0.26436476  0.50848705     1.49400
Zn419      Zn  0.77596307  0.22568119  0.50922682     1.49100
Zn420      Zn  0.77655561  0.26528940  0.46976225     1.49500
O421        O  0.75748645  0.24525465  0.48933301    -1.83400
O422        O  0.70535506  0.23301756  0.47383784    -0.74000
O423        O  0.74382002  0.25974707  0.54228209    -0.73800
O424        O  0.77174328  0.19155822  0.50207563    -0.73300
O425        O  0.70507825  0.25866719  0.50168512    -0.74000
O426        O  0.74365272  0.19203375  0.47675214    -0.73600
O427        O  0.76934367  0.23183195  0.54275065    -0.74200
O428        O  0.80973506  0.26198214  0.47929886    -0.73600
O429        O  0.74271053  0.29749768  0.50132566    -0.74300
O430        O  0.80876455  0.23418824  0.50538077    -0.73700
O431        O  0.76746433  0.29894319  0.47293781    -0.74200
O432        O  0.77336036  0.25671979  0.43600800    -0.74100
O433        O  0.74647909  0.23012705  0.43709717    -0.73900
C434        C  0.69464148  0.24642262  0.48711021     0.77900
C435        C  0.75675496  0.24614905  0.55319283     0.78400
C436        C  0.75771365  0.18107432  0.48913229     0.77300
C437        C  0.81963644  0.24895906  0.49371212     0.77700
C438        C  0.75382422  0.30896058  0.48664545     0.78900
C439        C  0.76032208  0.24257181  0.42587694     0.77900
C440        C  0.87670816  0.86803340  0.36614143    -0.01700
C441        C  0.77826510  0.96848863  0.47329088     0.87300
C442        C  0.78120192  0.99470306  0.46914998    -0.53000
C443        C  0.76620479  0.00806916  0.48109917     0.10200
C444        C  0.74993369  0.99422808  0.49621352     0.21100
C445        C  0.78019887  0.96627013  0.49944825    -0.53700
C446        C  0.76523584  0.97946394  0.51130485     0.10300
C447        C  0.75287337  0.96467389  0.46734169    -0.53200
C448        C  0.73797020  0.97780306  0.47963910     0.10900
H449        H  0.79377469  0.00239571  0.45812543     0.15400
H450        H  0.73807555  0.00503480  0.50629125     0.01100
H451        H  0.79295450  0.95580307  0.50784399     0.15700
H452        H  0.74763887  0.95373233  0.45344326     0.15500
C453        C  0.98341711  0.76849890  0.46548111     0.87300
C454        C  0.00925284  0.77256196  0.46196518    -0.53000
C455        C  0.02302426  0.75959323  0.47570156     0.10200
C456        C  0.00955538  0.74450798  0.49246120     0.21100
C457        C  0.98016987  0.74234933  0.46343466    -0.53700
C458        C  0.99420191  0.72981226  0.47732425     0.10300
C459        C  0.98015074  0.77341591  0.49131448    -0.53200
C460        C  0.99359768  0.76062460  0.50519034     0.10900
H461        H  0.01579465  0.78391787  0.44909612     0.15400
H462        H  0.02039590  0.73439423  0.50428159     0.01100
H463        H  0.96755745  0.73468848  0.45233594     0.15700
H464        H  0.96835434  0.78576439  0.49836536     0.15500
C465        C  0.78145814  0.76567114  0.25657957     0.87300
C466        C  0.75645870  0.76404314  0.26434197    -0.53000
C467        C  0.74307238  0.75033986  0.25115379     0.10200
C468        C  0.75590123  0.73909523  0.23120734     0.21100
C469        C  0.78917506  0.74022622  0.25575842    -0.53700
C470        C  0.77583291  0.72646934  0.24254068     0.10300
C471        C  0.78074566  0.77232015  0.23095464    -0.53200
C472        C  0.76692565  0.75887882  0.21771348     0.10900
H473        H  0.74975836  0.77349583  0.27881565     0.15400
H474        H  0.74506662  0.72789594  0.22063334     0.01100
H475        H  0.80339966  0.73284147  0.26430056     0.15700
H476        H  0.79053530  0.78638596  0.22388660     0.15500
C477        C  0.28422860  0.46946040  0.46791994     0.87300
C478        C  0.28690333  0.46485689  0.49374779    -0.53000
C479        C  0.27532926  0.47979391  0.50733412     0.10200
C480        C  0.26158032  0.49755582  0.49402481     0.21100
C481        C  0.25794807  0.46916678  0.46423696    -0.53700
C482        C  0.24625730  0.48390315  0.47807293     0.10300
C483        C  0.29033131  0.49485157  0.46440699    -0.53200
C484        C  0.27875907  0.50959321  0.47819997     0.10900
H485        H  0.29657856  0.45060711  0.50051682     0.15400
H486        H  0.25186050  0.50904190  0.50549742     0.01100
H487        H  0.24898937  0.45869845  0.45195421     0.15700
H488        H  0.30324540  0.50033826  0.45249528     0.15500
Zn489      Zn  0.49341334  0.47030196  0.98020754     1.49700
Zn490      Zn  0.53117209  0.51071307  0.98102085     1.49400
Zn491      Zn  0.49422874  0.50807429  0.02096405     1.49100
Zn492      Zn  0.53345538  0.47172355  0.01813190     1.49500
O493        O  0.51279292  0.49011065  0.99981921    -1.83400
O494        O  0.50057426  0.47631862  0.94596090    -0.74000
O495        O  0.52296915  0.54348853  0.98713838    -0.73800
O496        O  0.46135866  0.50354461  0.01360957    -0.73300
O497        O  0.52532370  0.50469303  0.94777712    -0.74000
O498        O  0.45945614  0.47755484  0.98606555    -0.73600
O499        O  0.50001709  0.54203027  0.01736326    -0.74200
O500        O  0.52683586  0.47335610  0.05178734    -0.73600
O501        O  0.56516594  0.50629582  0.98588165    -0.74300
O502        O  0.49824102  0.49803602  0.05389907    -0.73700
O503        O  0.56617281  0.47927314  0.01243241    -0.74200
O504        O  0.52943061  0.43901614  0.01050666    -0.74100
O505        O  0.49971175  0.43630908  0.98754764    -0.73900
C506        C  0.51361451  0.49079358  0.93600490     0.77900
C507        C  0.51091021  0.55334779  0.00228439     0.78400
C508        C  0.44980067  0.49157354  0.99974386     0.77300
C509        C  0.51179517  0.48389201  0.06324726     0.77700
C510        C  0.57628509  0.49263212  0.99862892     0.78900
C511        C  0.51522714  0.42689198  0.99968143     0.77900
C512        C  0.49079812  0.47024494  0.27315503     0.87300
C513        C  0.48762302  0.46079273  0.24872003    -0.53000
C514        C  0.49967015  0.47221588  0.23243048     0.10200
C515        C  0.51314785  0.49276255  0.24163863     0.21100
C516        C  0.51687728  0.47070077  0.27661594    -0.53700
C517        C  0.52867919  0.48279731  0.26031726     0.10300
C518        C  0.48363763  0.49549625  0.27042573    -0.53200
C519        C  0.49575384  0.50739452  0.25446929     0.10900
H520        H  0.47670160  0.44644965  0.24452081     0.15400
H521        H  0.52238259  0.50250516  0.22825025     0.01100
H522        H  0.52506107  0.46113376  0.29011997     0.15700
H523        H  0.47057280  0.50379131  0.28036432     0.15500
C524        C  0.38124974  0.36656019  0.36228143    -0.01700
C525        C  0.48663074  0.26711847  0.46251795     0.87300
C526        C  0.47783049  0.26718612  0.48757597    -0.53000
C527        C  0.49094508  0.25505421  0.50264290     0.10200
C528        C  0.51119428  0.24311984  0.49092772     0.21100
C529        C  0.51158742  0.27475264  0.46411529    -0.53700
C530        C  0.52448733  0.26216390  0.47880159     0.10300
C531        C  0.48714210  0.24137131  0.45722674    -0.53200
C532        C  0.50036344  0.22896662  0.47180819     0.10900
H533        H  0.46155987  0.27418675  0.49238580     0.15400
H534        H  0.52177112  0.23248644  0.50244470     0.01100
H535        H  0.51866211  0.28841354  0.45371950     0.15700
H536        H  0.47692286  0.23340377  0.44403810     0.15500
Zn537      Zn  0.52356743  0.97404531  0.46986393     1.49700
Zn538      Zn  0.52433010  0.01484133  0.50623905     1.49400
Zn539      Zn  0.48492504  0.01231276  0.46824706     1.49100
Zn540      Zn  0.48537620  0.97591835  0.50840259     1.49500
O541        O  0.50461604  0.99438067  0.48827387    -1.83400
O542        O  0.55657008  0.98153745  0.47347154    -0.74000
O543        O  0.51672716  0.04797525  0.49953545    -0.73800
O544        O  0.49083370  0.00489339  0.43519161    -0.73300
O545        O  0.55770382  0.00998478  0.49834054    -0.74000
O546        O  0.51716022  0.97765512  0.43628946    -0.73600
O547        O  0.49057237  0.04578218  0.47233992    -0.74200
O548        O  0.45173637  0.98153617  0.50312840    -0.73600
O549        O  0.52005093  0.00922075  0.54033267    -0.74300
O550        O  0.45170177  0.00759810  0.47551846    -0.73700
O551        O  0.49195005  0.98383714  0.54097377    -0.74200
O552        O  0.49258545  0.94234480  0.50577319    -0.74100
O553        O  0.51986602  0.94120846  0.47962453    -0.73900
C554        C  0.56777409  0.99597721  0.48512454     0.77900
C555        C  0.50313489  0.05754331  0.48553727     0.78400
C556        C  0.50408059  0.99093914  0.42518025     0.77300
C557        C  0.44112973  0.99503620  0.48979230     0.77700
C558        C  0.50599744  0.99669200  0.55127764     0.78900
C559        C  0.50712755  0.93121084  0.49417820     0.77900
C560        C  0.52987815  0.01464622  0.21560182     0.87300
C561        C  0.53373958  0.98901573  0.21034107    -0.53000
C562        C  0.52069948  0.97457913  0.22323222     0.10200
C563        C  0.50428541  0.98677953  0.23936166     0.21100
C564        C  0.50380873  0.01758325  0.21169863    -0.53700
C565        C  0.49056014  0.00309356  0.22427078     0.10300
C566        C  0.53248648  0.01693284  0.24176577    -0.53200
C567        C  0.51893601  0.00251180  0.25412855     0.10900
H568        H  0.54613806  0.98279882  0.19810912     0.15400
H569        H  0.49357619  0.97477023  0.24944089     0.01100
H570        H  0.49600750  0.03010244  0.20071706     0.15700
H571        H  0.54431955  0.02873308  0.24962919     0.15500
C572        C  0.03610824  0.51279236  0.21808183     0.87300
C573        C  0.04244458  0.51618264  0.24351057    -0.53000
C574        C  0.03080518  0.50240907  0.25834326     0.10200
C575        C  0.01421973  0.48604825  0.24647166     0.21100
C576        C  0.04032831  0.48678257  0.21437541    -0.53700
C577        C  0.02868172  0.47298161  0.22913928     0.10300
C578        C  0.00996384  0.51502155  0.21706662    -0.53200
C579        C  0.99847689  0.50157211  0.23237349     0.10900
H580        H  0.05418403  0.52920062  0.24937367     0.15400
H581        H  0.00499824  0.47462149  0.25851872     0.01100
H582        H  0.05166151  0.47941450  0.20180915     0.15700
H583        H  0.00150712  0.52581108  0.20466777     0.15500
Zn584      Zn  0.03084893  0.47654226  0.47159962     1.49700
Zn585      Zn  0.99397460  0.47361698  0.51028369     1.49400
Zn586      Zn  0.03260213  0.51392970  0.51182487     1.49100
Zn587      Zn  0.99258406  0.51435805  0.47416934     1.49500
O588        O  0.01253286  0.49481692  0.49224860    -1.83400
O589        O  0.02508138  0.44314407  0.47462080    -0.74000
O590        O  0.00103118  0.47891767  0.54323382    -0.73800
O591        O  0.06617786  0.50681426  0.50535619    -0.73300
O592        O  0.99987190  0.43998180  0.50254599    -0.74000
O593        O  0.06359932  0.48089414  0.47799367    -0.73600
O594        O  0.02565093  0.50758235  0.54558389    -0.74200
O595        O  0.99953791  0.54719207  0.48024594    -0.73600
O596        O  0.96026009  0.48074492  0.50738059    -0.74300
O597        O  0.02714583  0.54812530  0.50592877    -0.73700
O598        O  0.95956860  0.50996591  0.48305673    -0.74200
O599        O  0.99758411  0.50991140  0.44018701    -0.74100
O600        O  0.02611642  0.48516285  0.43900451    -0.73900
C601        C  0.01307323  0.43087068  0.48781725     0.77900
C602        C  0.01266096  0.49290558  0.55511820     0.78400
C603        C  0.07553667  0.49320879  0.49111452     0.77300
C604        C  0.01313138  0.55843812  0.49285745     0.77700
C605        C  0.94946833  0.49624921  0.49661413     0.78900
C606        C  0.01235011  0.49856972  0.42902436     0.77900
C607        C  0.02808800  0.22034844  0.51317447     0.87300
C608        C  0.02870478  0.21399087  0.48729698    -0.53000
C609        C  0.01456499  0.22674036  0.47385205     0.10200
C610        C  0.00153004  0.24503747  0.48709171     0.21100
C611        C  0.03413778  0.24612200  0.51263903    -0.53700
C612        C  0.01980354  0.25910648  0.49943364     0.10300
C613        C  0.00272145  0.21938462  0.51970374    -0.53200
C614        C  0.98876611  0.23220854  0.50617624     0.10900
H615        H  0.04021132  0.20166545  0.47975563     0.15400
H616        H  0.99037985  0.25552858  0.47591139     0.01100
H617        H  0.04860044  0.25330283  0.52155492     0.15700
H618        H  0.99680100  0.21011539  0.53456394     0.15500
C619        C  0.28943809  0.96019776  0.96973831     0.87300
C620        C  0.29009848  0.95541752  0.99599431    -0.53000
C621        C  0.27462519  0.96748187  0.00844055     0.10200
C622        C  0.26019255  0.98367419  0.99398977     0.21100
C623        C  0.26426467  0.95638415  0.96309377    -0.53700
C624        C  0.24884498  0.96866118  0.97563003     0.10300
C625        C  0.29296805  0.98639195  0.96869067    -0.53200
C626        C  0.27729590  0.99866174  0.98091383     0.10900
H627        H  0.30250103  0.94499599  0.00478850     0.15400
H628        H  0.24813132  0.99368284  0.00461615     0.01100
H629        H  0.25957010  0.94572556  0.94880890     0.15700
H630        H  0.30691895  0.99439343  0.95955169     0.15500
Zn631      Zn  0.03475039  0.96715112  0.01249290     1.49700
Zn632      Zn  0.03423291  0.00503159  0.97451711     1.49400
Zn633      Zn  0.99472820  0.96564080  0.97508913     1.49100
Zn634      Zn  0.99640904  0.00565173  0.01310188     1.49500
O635        O  0.01480281  0.98577389  0.99362523    -1.83400
O636        O  0.06816416  0.97212923  0.00587391    -0.74000
O637        O  0.02731962  0.99872671  0.94204937    -0.73800
O638        O  0.00268993  0.93186552  0.97981481    -0.73300
O639        O  0.06780617  0.99811651  0.97836615    -0.74000
O640        O  0.02949854  0.93423459  0.00605214    -0.73600
O641        O  0.99973572  0.97274123  0.94128985    -0.74200
O642        O  0.96330939  0.99913355  0.00812529    -0.73600
O643        O  0.02773780  0.03868440  0.97879012    -0.74300
O644        O  0.96087589  0.97072286  0.98316325    -0.73700
O645        O  0.00110228  0.03917547  0.00581369    -0.74200
O646        O  0.00198727  0.99935105  0.04652483    -0.74100
O647        O  0.02780408  0.97156150  0.04568806    -0.73900
C648        C  0.07863674  0.98437676  0.99129123     0.77900
C649        C  0.01361258  0.98606910  0.93106909     0.78400
C650        C  0.01721083  0.92228161  0.99291614     0.77300
C651        C  0.95144680  0.98516993  0.99649535     0.77700
C652        C  0.01383590  0.04947680  0.99149362     0.78900
C653        C  0.01419607  0.98446789  0.05655671     0.77900
C654        C  0.98528645  0.96428529  0.26495084     0.87300
C655        C  0.01055060  0.96218662  0.27216362    -0.53000
C656        C  0.02566016  0.97369470  0.25843874     0.10200
C657        C  0.01383179  0.98606448  0.23835567     0.21100
C658        C  0.98084607  0.99012501  0.26312533    -0.53700
C659        C  0.99581944  0.00155580  0.24941002     0.10300
C660        C  0.98568905  0.95583720  0.23984649    -0.53200
C661        C  0.00045445  0.96731112  0.22604402     0.10900
H662        H  0.01566340  0.95264437  0.28697848     0.15400
H663        H  0.02542216  0.99541824  0.22662530     0.01100
H664        H  0.96753850  0.99876634  0.27265298     0.15700
H665        H  0.97563319  0.94181942  0.23322973     0.15500
C666        C  0.99014144  0.25900863  0.96333587     0.87300
C667        C  0.98493304  0.25988023  0.98949357    -0.53000
C668        C  0.99857203  0.24614026  0.00252862     0.10200
C669        C  0.01601065  0.23277242  0.98852362     0.21100
C670        C  0.01579273  0.26525663  0.96264632    -0.53700
C671        C  0.02938463  0.25124247  0.97555675     0.10300
C672        C  0.98867016  0.23331089  0.95756060    -0.53200
C673        C  0.00237596  0.21975559  0.97061283     0.10900
H674        H  0.97238349  0.27080926  0.99738948     0.15400
H675        H  0.02682108  0.22133409  0.99910275     0.01100
H676        H  0.02210628  0.28041046  0.95419814     0.15700
H677        H  0.97719926  0.22642655  0.94477015     0.15500
Zn678      Zn  0.24116013  0.21382949  0.01508343     1.49700
Zn679      Zn  0.27530576  0.21474084  0.97204009     1.49400
Zn680      Zn  0.23902116  0.25499211  0.97791941     1.49100
Zn681      Zn  0.28030747  0.25199302  0.01155752     1.49500
O682        O  0.25883138  0.23366350  0.99413535    -1.83400
O683        O  0.24733753  0.18017282  0.00878120    -0.74000
O684        O  0.26539000  0.22220317  0.93950237    -0.73800
O685        O  0.20700786  0.24933919  0.98729297    -0.73300
O686        O  0.27068208  0.18110024  0.97900373    -0.74000
O687        O  0.20716710  0.22069549  0.01238598    -0.73600
O688        O  0.24091998  0.25074875  0.94392269    -0.74200
O689        O  0.27413974  0.28575070  0.00956601    -0.73600
O690        O  0.30927478  0.21996968  0.97451807    -0.74300
O691        O  0.24548975  0.28823043  0.98511947    -0.73700
O692        O  0.31228512  0.24600858  0.00182653    -0.74200
O693        O  0.27865756  0.24408829  0.04452818    -0.74100
O694        O  0.25086030  0.21902358  0.04805074    -0.73900
C695        C  0.25973419  0.16989135  0.99418233     0.77900
C696        C  0.25199645  0.23716376  0.93112592     0.78400
C697        C  0.19665879  0.23589109  0.00083050     0.77300
C698        C  0.25968255  0.29757321  0.99858997     0.77700
C699        C  0.32133939  0.23278510  0.98725398     0.78900
C700        C  0.26644713  0.23127685  0.05696629     0.77900
Zn701      Zn  0.23931121  0.00840585  0.26175621     1.49700
Zn702      Zn  0.27856282  0.97158498  0.26739716     1.49400
Zn703      Zn  0.24105696  0.96763126  0.22598946     1.49100
Zn704      Zn  0.27813855  0.00594080  0.22378184     1.49500
O705        O  0.25939946  0.98814307  0.24480675    -1.83400
O706        O  0.24270245  0.00446995  0.29562395    -0.74000
O707        O  0.27313602  0.93758859  0.26431471    -0.73800
O708        O  0.20731110  0.97245098  0.23126085    -0.73300
O709        O  0.27013371  0.97942849  0.30062753    -0.74000
O710        O  0.20655213  0.00132690  0.25570340    -0.73600
O711        O  0.24719038  0.93598913  0.23653490    -0.74200
O712        O  0.27411824  0.99733449  0.19040053    -0.73600
O713        O  0.31219527  0.97872098  0.26198658    -0.74300
O714        O  0.24841395  0.96956669  0.19179535    -0.73700
O715        O  0.31068707  0.00142894  0.23151869    -0.74200
O716        O  0.27282492  0.03945053  0.22786849    -0.74100
O717        O  0.24614620  0.04121572  0.25471216    -0.73900
C718        C  0.25498504  0.99265750  0.30893850     0.77900
C719        C  0.25948273  0.92643276  0.25163696     0.78400
C720        C  0.19632743  0.98625987  0.24390973     0.77300
C721        C  0.26203812  0.98226389  0.18051042     0.77700
C722        C  0.32198077  0.99095322  0.24679847     0.78900
C723        C  0.26001234  0.05090659  0.24110328     0.77900
Zn724      Zn  0.02652982  0.21795203  0.22040213     1.49700
Zn725      Zn  0.02329549  0.25812775  0.25883251     1.49400
Zn726      Zn  0.98888123  0.25837783  0.21785873     1.49100
Zn727      Zn  0.98551345  0.22004682  0.25683937     1.49500
O728        O  0.00620605  0.23842499  0.23822446    -1.83400
O729        O  0.05993051  0.22513472  0.22826769    -0.74000
O730        O  0.01939003  0.29164958  0.25231730    -0.73800
O731        O  0.99421212  0.24947232  0.18519479    -0.73300
O732        O  0.05605750  0.25203435  0.25461851    -0.74000
O733        O  0.02071355  0.22237689  0.18589746    -0.73600
O734        O  0.99732918  0.29188603  0.22150550    -0.74200
O735        O  0.95288394  0.22743576  0.24975730    -0.73600
O736        O  0.01661910  0.25181454  0.29200059    -0.74300
O737        O  0.95533357  0.25455340  0.22328951    -0.73700
O738        O  0.99103047  0.22399847  0.29076395    -0.74200
O739        O  0.99022876  0.18684744  0.25081517    -0.74100
O740        O  0.02020082  0.18404384  0.22821352    -0.73900
C741        C  0.06855591  0.23900243  0.24275662     0.77900
C742        C  0.00931359  0.30230521  0.23632476     0.78400
C743        C  0.00684287  0.23515330  0.17493318     0.77300
C744        C  0.94354437  0.24144944  0.23604838     0.77700
C745        C  0.00385229  0.23739897  0.30201037     0.78900
C746        C  0.00469969  0.17463356  0.24039173     0.77900
C747        C  0.27752886  0.26182677  0.26593607     0.87300
C748        C  0.28479147  0.23649361  0.26886263    -0.53000
C749        C  0.27185393  0.22116944  0.25673758     0.10200
C750        C  0.25331802  0.23286823  0.24222968     0.21100
C751        C  0.27919063  0.26502271  0.23964159    -0.53700
C752        C  0.26629031  0.25006053  0.22743381     0.10300
C753        C  0.25180809  0.26253299  0.27098311    -0.53200
C754        C  0.23921064  0.24712418  0.25892205     0.10900
H755        H  0.29976412  0.23164262  0.27835680     0.15400
H756        H  0.24281812  0.22116879  0.23175233     0.01100
H757        H  0.29082595  0.27660780  0.23109730     0.15700
H758        H  0.24420816  0.27449601  0.28291856     0.15500
C759        C  0.63254599  0.11661833  0.11397674    -0.01700
C760        C  0.63367838  0.61205944  0.61659985    -0.01700
C761        C  0.17799972  0.22559224  0.25876854    -0.11100
C762        C  0.16631153  0.24566467  0.25336216     0.11500
C763        C  0.17810364  0.26671957  0.25283363    -0.02900
C764        C  0.20188837  0.26657257  0.25553189    -0.05600
C765        C  0.21389104  0.24621453  0.25951572    -0.16400
C766        C  0.20158447  0.22553209  0.26245406     0.02500
C767        C  0.14139911  0.24408374  0.24995941     0.12400
C768        C  0.16557504  0.28917684  0.24978394     0.63100
H769        H  0.21140309  0.28233253  0.25394522     0.12500
C770        C  0.21265022  0.20366752  0.27073764     0.55200
H771        H  0.16841088  0.20983960  0.26015467     0.08300
C772        C  0.13165143  0.23818858  0.22866654    -0.05500
C773        C  0.10781075  0.23631053  0.22709622    -0.06300
C774        C  0.09362661  0.24036235  0.24603501    -0.15900
C775        C  0.10367352  0.24594971  0.26753109    -0.01500
C776        C  0.12746693  0.24741044  0.26901135    -0.09000
C777        C  0.14642471  0.23390364  0.20777971     0.65300
H778        H  0.10003129  0.23203911  0.21088713     0.10700
C779        C  0.08972250  0.25036205  0.28903770     0.63700
H780        H  0.13554629  0.25150400  0.28512862     0.08100
F781        F  0.19690281  0.18932645  0.28099600    -0.19400
F782        F  0.22897811  0.20856836  0.28688240    -0.15600
F783        F  0.22237876  0.19214218  0.25264173    -0.19100
F784        F  0.15097683  0.29250425  0.26801562    -0.22500
F785        F  0.15310563  0.28895331  0.22978274    -0.24000
F786        F  0.18039292  0.30753016  0.24885304    -0.17900
F787        F  0.10323295  0.25159589  0.30837666    -0.20400
F788        F  0.07421520  0.23290359  0.29244093    -0.21600
F789        F  0.07838300  0.27094697  0.28700403    -0.18800
F790        F  0.13352571  0.22889372  0.18864756    -0.18900
F791        F  0.16079832  0.21569214  0.21186193    -0.22700
F792        F  0.15934717  0.25302474  0.20293015    -0.24300
C793        C  0.24825207  0.11465191  0.24445567    -0.11100
C794        C  0.27051927  0.12320241  0.24536176     0.11500
C795        C  0.28922822  0.10808764  0.24451783    -0.02900
C796        C  0.28490704  0.08462234  0.24233956    -0.05600
C797        C  0.26262592  0.07595167  0.24174103    -0.16400
C798        C  0.24389227  0.09113038  0.24262762     0.02500
C799        C  0.27355183  0.14814806  0.24774901     0.12400
C800        C  0.31356424  0.11665311  0.24645909     0.63100
H801        H  0.29898277  0.07270760  0.24188340     0.12500
C802        C  0.21950108  0.08268746  0.24110669     0.55200
H803        H  0.23427453  0.12665492  0.24540838     0.08300
C804        C  0.27219558  0.16294954  0.22879331    -0.05500
C805        C  0.27355557  0.18653081  0.23263241    -0.06300
C806        C  0.27595520  0.19591580  0.25468816    -0.15900
C807        C  0.27872426  0.18071849  0.27357024    -0.01500
C808        C  0.27695681  0.15705572  0.26965062    -0.09000
C809        C  0.26837131  0.15391501  0.20472921     0.65300
H810        H  0.27164960  0.19786760  0.21825269     0.10700
C811        C  0.28376498  0.18870651  0.29769986     0.63700
H812        H  0.27818555  0.14509725  0.28373860     0.08100
F813        F  0.20425680  0.10053674  0.23876811    -0.19400
F814        F  0.21382102  0.07077652  0.26072910    -0.15600
F815        F  0.21708292  0.06856745  0.22232686    -0.19100
F816        F  0.31677476  0.12673347  0.26755227    -0.22500
F817        F  0.31803877  0.13252737  0.22953838    -0.24000
F818        F  0.32918711  0.09911266  0.24431024    -0.17900
F819        F  0.28242241  0.17104882  0.31342344    -0.20400
F820        F  0.26843203  0.20509288  0.30440650    -0.21600
F821        F  0.30557764  0.19739371  0.29859435    -0.18800
F822        F  0.26935133  0.17113352  0.18852723    -0.18900
F823        F  0.24719256  0.14376600  0.20336207    -0.22700
F824        F  0.28478981  0.13796071  0.19925662    -0.24300
C825        C  0.28712063  0.24473130  0.11763163    -0.11100
C826        C  0.27158443  0.23219835  0.13067395     0.11500
C827        C  0.25585494  0.21764521  0.11963991    -0.02900
C828        C  0.25500051  0.21773758  0.09565341    -0.05600
C829        C  0.26998435  0.23100492  0.08229585    -0.16400
C830        C  0.28736170  0.24377534  0.09363719     0.02500
C831        C  0.27096465  0.23681950  0.15552123     0.12400
C832        C  0.23961136  0.20173755  0.13210157     0.63100
H833        H  0.24226615  0.20725765  0.08734914     0.12500
C834        C  0.30626332  0.25643724  0.08109695     0.55200
H835        H  0.29891992  0.25575174  0.12658080     0.08300
C836        C  0.28726612  0.22768177  0.17075302    -0.05500
C837        C  0.28588290  0.23355474  0.19400365    -0.06300
C838        C  0.26824472  0.24732767  0.20235881    -0.15900
C839        C  0.25213478  0.25666930  0.18706739    -0.01500
C840        C  0.25392121  0.25141120  0.16370599    -0.09000
C841        C  0.30545620  0.21123331  0.16254953     0.65300
H842        H  0.29817079  0.22683199  0.20604598     0.10700
C843        C  0.23303894  0.27182522  0.19546726     0.63700
H844        H  0.24177772  0.25831476  0.15161818     0.08100
F845        F  0.31737463  0.24174712  0.06634511    -0.19400
F846        F  0.32240306  0.26512244  0.09596173    -0.15600
F847        F  0.29734481  0.27459518  0.06904139    -0.19100
F848        F  0.21747532  0.20835764  0.12769373    -0.22500
F849        F  0.24280921  0.20138083  0.15549772    -0.24000
F850        F  0.24268870  0.17972936  0.12412022    -0.17900
F851        F  0.22048879  0.28083915  0.17758510    -0.20400
F852        F  0.24187125  0.28976890  0.20797910    -0.21600
F853        F  0.21855850  0.25918020  0.20908000    -0.18800
F854        F  0.31840585  0.20290968  0.18047162    -0.18900
F855        F  0.31988338  0.22211557  0.14737374    -0.22700
F856        F  0.29535996  0.19287043  0.15172303    -0.24300
C857        C  0.00236961  0.25989844  0.06638638    -0.11100
C858        C  0.00156910  0.23791086  0.07589299     0.11500
C859        C  0.99858234  0.21885735  0.06132118    -0.02900
C860        C  0.99682631  0.22258162  0.03759172    -0.05600
C861        C  0.99805790  0.24454759  0.02798075    -0.16400
C862        C  0.00140443  0.26359941  0.04259186     0.02500
C863        C  0.00368844  0.23560418  0.10122757     0.12400
C864        C  0.99745673  0.19468912  0.07071121     0.63100
H865        H  0.99468559  0.20820205  0.02621877     0.12500
C866        C  0.00445953  0.28777470  0.03361749     0.55200
H867        H  0.00408543  0.27428504  0.07787016     0.08300
C868        C  0.02480935  0.23804024  0.11269230    -0.05500
C869        C  0.02527938  0.23690920  0.13677751    -0.06300
C870        C  0.00535776  0.23379690  0.14961919    -0.15900
C871        C  0.98432222  0.23065888  0.13810426    -0.01500
C872        C  0.98387072  0.23189705  0.11405071    -0.09000
C873        C  0.04672230  0.24198095  0.09954135     0.65300
H874        H  0.04115754  0.23924064  0.14585221     0.10700
C875        C  0.96252008  0.22536966  0.15106400     0.63700
H876        H  0.96789267  0.23031162  0.10499601     0.08100
F877        F  0.01514013  0.30148544  0.04961039    -0.19400
F878        F  0.98342017  0.29710677  0.02882136    -0.15600
F879        F  0.01775621  0.28810596  0.01411495    -0.19100
F880        F  0.97829940  0.19216605  0.08418574    -0.22500
F881        F  0.01655560  0.19016411  0.08370865    -0.24000
F882        F  0.99641264  0.17860923  0.05341533    -0.17900
F883        F  0.95584024  0.24410493  0.16370517    -0.20400
F884        F  0.96602689  0.20701684  0.16555722    -0.21600
F885        F  0.94486897  0.21979273  0.13644307    -0.18800
F886        F  0.06550322  0.24218801  0.11379239    -0.18900
F887        F  0.04585649  0.26275964  0.08834948    -0.22700
F888        F  0.04969800  0.22473938  0.08373156    -0.24300
C889        C  0.09411274  0.25257897  0.96970102    -0.11100
C890        C  0.10024433  0.24830209  0.99243568     0.11500
C891        C  0.08357640  0.24909231  0.00977159    -0.02900
C892        C  0.06080669  0.25239774  0.00339376    -0.05600
C893        C  0.05416132  0.25450790  0.98035697    -0.16400
C894        C  0.07127341  0.25566469  0.96318984     0.02500
C895        C  0.12449205  0.24368488  0.99742692     0.12400
C896        C  0.08969250  0.24574702  0.03478070     0.63100
H897        H  0.04776201  0.25232416  0.01645760     0.12500
C898        C  0.06592158  0.25980130  0.93818198     0.55200
H899        H  0.10751731  0.25300995  0.95698648     0.08300
C900        C  0.13446491  0.22204111  0.99340933    -0.05500
C901        C  0.15812435  0.21962457  0.99624328    -0.06300
C902        C  0.17175775  0.23821274  0.00256591    -0.15900
C903        C  0.16152353  0.25945652  0.00789965    -0.01500
C904        C  0.13797386  0.26188626  0.00490947    -0.09000
C905        C  0.12028897  0.20188437  0.98540161     0.65300
H906        H  0.16632852  0.20355074  0.99231650     0.10700
C907        C  0.17534925  0.27939471  0.01700561     0.63700
H908        H  0.12992764  0.27826020  0.00779721     0.08100
F909        F  0.08490648  0.25713184  0.92441360    -0.19400
F910        F  0.05815030  0.28185411  0.93535689    -0.15600
F911        F  0.04971950  0.24457070  0.93073396    -0.19100
F912        F  0.10468060  0.26252826  0.04170554    -0.22500
F913        F  0.09968321  0.22462683  0.03791479    -0.24000
F914        F  0.07072356  0.24690885  0.04870601    -0.17900
F915        F  0.16153144  0.29697148  0.02455294    -0.20400
F916        F  0.18936841  0.28800857  0.00008207    -0.21600
F917        F  0.18846430  0.27219902  0.03527196    -0.18800
F918        F  0.13307602  0.18210236  0.98400024    -0.18900
F919        F  0.11141658  0.20637247  0.96398880    -0.22700
F920        F  0.10260283  0.19795644  0.00049292    -0.24300
C921        C  0.98488591  0.06377238  0.23286469    -0.11100
C922        C  0.00069799  0.07511001  0.24675062     0.11500
C923        C  0.01418604  0.06229519  0.26221374    -0.02900
C924        C  0.01198577  0.03833081  0.26251619    -0.05600
C925        C  0.99671774  0.02693983  0.24807854    -0.16400
C926        C  0.98272714  0.03980687  0.23316849     0.02500
C927        C  0.00234176  0.10048516  0.24495993     0.12400
C928        C  0.03036749  0.07389026  0.27873928     0.63100
H929        H  0.02191810  0.02824987  0.27439634     0.12500
C930        C  0.96612915  0.02823591  0.21717383     0.55200
H931        H  0.97443562  0.07392837  0.22150284     0.08300
C932        C  0.01474335  0.11147991  0.22734002    -0.05500
C933        C  0.01517495  0.13557726  0.22656602    -0.06300
C934        C  0.00342527  0.14905753  0.24265405    -0.15900
C935        C  0.99101408  0.13772873  0.26046651    -0.01500
C936        C  0.99067040  0.11366417  0.26103392    -0.09000
C937        C  0.02732952  0.09770926  0.20935349     0.65300
H938        H  0.02450905  0.14406632  0.21304143     0.10700
C939        C  0.97830150  0.15051876  0.27919397     0.63700
H940        H  0.98107808  0.10473600  0.27409977     0.08100
F941        F  0.97809206  0.01484881  0.20198434    -0.19400
F942        F  0.95353040  0.04385682  0.20470885    -0.15600
F943        F  0.95116509  0.01475508  0.22948560    -0.19100
F944        F  0.01801207  0.08615313  0.29464195    -0.22500
F945        F  0.04472911  0.08857056  0.26711032    -0.24000
F946        F  0.04368848  0.05822597  0.29036592    -0.17900
F947        F  0.96015223  0.16232200  0.26987947    -0.20400
F948        F  0.99287568  0.16551685  0.29009821    -0.21600
F949        F  0.96961335  0.13593247  0.29569003    -0.18800
F950        F  0.03955658  0.11155151  0.19458117    -0.18900
F951        F  0.01195799  0.08527374  0.19655527    -0.22700
F952        F  0.04240425  0.08286738  0.21975560    -0.24300
C953        C  0.08926699  0.95898758  0.26524940    -0.11100
C954        C  0.09903879  0.97963067  0.25818923     0.11500
C955        C  0.08496555  0.99851017  0.25332599    -0.02900
C956        C  0.06132941  0.99591938  0.25550024    -0.05600
C957        C  0.05107219  0.97499994  0.26156793    -0.16400
C958        C  0.06548855  0.95617001  0.26732464     0.02500
C959        C  0.12407736  0.98070617  0.25502943     0.12400
C960        C  0.09484358  0.02117626  0.24529859     0.63100
H961        H  0.05058262  0.01037514  0.25176414     0.12500
C962        C  0.05673887  0.93327929  0.27608229     0.55200
H963        H  0.10064774  0.94497586  0.26909884     0.08300
C964        C  0.13905028  0.98517212  0.27337523    -0.05500
C965        C  0.16242879  0.98704464  0.26873312    -0.06300
C966        C  0.17130664  0.98402109  0.24659248    -0.15900
C967        C  0.15630178  0.97886422  0.22832964    -0.01500
C968        C  0.13283696  0.97723940  0.23297905    -0.09000
C969        C  0.13045824  0.98749566  0.29778317     0.65300
H970        H  0.17412368  0.99046057  0.28260015     0.10700
C971        C  0.16475400  0.97578503  0.20398961     0.63700
H972        H  0.12097675  0.97341943  0.21934951     0.08100
F973        F  0.04935101  0.93569617  0.29838224    -0.19400
F974        F  0.07363407  0.91681390  0.27607254    -0.15600
F975        F  0.03924434  0.92509572  0.26267081    -0.19100
F976        F  0.10643040  0.01818377  0.22495293    -0.22500
F977        F  0.10969880  0.02964605  0.26148592    -0.24000
F978        F  0.07810950  0.03739906  0.24166653    -0.17900
F979        F  0.17752304  0.95604050  0.20243713    -0.20400
F980        F  0.17795006  0.99430971  0.19764560    -0.21600
F981        F  0.14696485  0.97407038  0.18859157    -0.18800
F982        F  0.14785044  0.99271044  0.31284983    -0.18900
F983        F  0.12070496  0.96716836  0.30475668    -0.22700
F984        F  0.11439226  0.00463405  0.29915317    -0.24300
C985        C  0.01616941  0.11374552  0.00054440    -0.11100
C986        C  0.00485247  0.12156311  0.98089143     0.11500
C987        C  0.99722619  0.10564216  0.96438184    -0.02900
C988        C  0.00047063  0.08219725  0.96860168    -0.05600
C989        C  0.01139437  0.07439489  0.98844330    -0.16400
C990        C  0.01966312  0.09028459  0.00457552     0.02500
C991        C  0.00278029  0.14662451  0.97730206     0.12400
C992        C  0.98601049  0.11341052  0.94230290     0.63100
H993        H  0.99456678  0.06968095  0.95635324     0.12500
C994        C  0.03289238  0.08239971  0.02537503     0.55200
H995        H  0.02253649  0.12626105  0.01255229     0.08300
C996        C  0.98552070  0.15983043  0.98781626    -0.05500
C997        C  0.98514304  0.18358093  0.98392698    -0.06300
C998        C  0.00180893  0.19440224  0.97057519    -0.15900
C999        C  0.01911657  0.18117434  0.96022769    -0.01500
C1000       C  0.01924249  0.15741931  0.96372139    -0.09000
C1001       C  0.96801740  0.14897190  0.00354259     0.65300
H1002       H  0.97232183  0.19408664  0.99204192     0.10700
C1003       C  0.03749211  0.19212966  0.94577493     0.63700
H1004       H  0.03253058  0.14702850  0.95623950     0.08100
F1005       F  0.01948587  0.06825908  0.03871229    -0.19400
F1006       F  0.03990365  0.10056372  0.03873722    -0.15600
F1007       F  0.05199600  0.07053406  0.01836472    -0.19100
F1008       F  0.00116910  0.12625308  0.92957301    -0.22500
F1009       F  0.96707453  0.12651821  0.94711353    -0.24000
F1010       F  0.97913273  0.09512307  0.92903618    -0.17900
F1011       F  0.05077474  0.20607717  0.95929701    -0.20400
F1012       F  0.02754569  0.20484045  0.92855652    -0.21600
F1013       F  0.05155882  0.17607196  0.93571529    -0.18800
F1014       F  0.95253099  0.16481790  0.01164151    -0.18900
F1015       F  0.97877436  0.13923312  0.02215470    -0.22700
F1016       F  0.95611812  0.13226372  0.99196199    -0.24300
C1017       C  0.99950632  0.95679726  0.11303058    -0.11100
C1018       C  0.00622384  0.97370576  0.12847857     0.11500
C1019       C  0.01519875  0.99466577  0.12033436    -0.02900
C1020       C  0.01762364  0.99778937  0.09658548    -0.05600
C1021       C  0.01117736  0.98067410  0.08119964    -0.16400
C1022       C  0.00121281  0.96020704  0.08935723     0.02500
C1023       C  0.00364262  0.96899678  0.15318751     0.12400
C1024       C  0.02209524  0.01354700  0.13670618     0.63100
H1025       H  0.02475631  0.01347442  0.08984690     0.12500
C1026       C  0.99154735  0.94251855  0.07304628     0.55200
H1027       H  0.99269888  0.94094657  0.11972022     0.08300
C1028       C  0.98244196  0.97092433  0.16448651    -0.05500
C1029       C  0.98180991  0.96819509  0.18835774    -0.06300
C1030       C  0.00162440  0.96379016  0.20095876    -0.15900
C1031       C  0.02225727  0.95934000  0.18921657    -0.01500
C1032       C  0.02299932  0.96254697  0.16548350    -0.09000
C1033       C  0.96079920  0.97651299  0.15148297     0.65300
H1034       H  0.96602330  0.97082498  0.19754899     0.10700
C1035       C  0.04358285  0.95051175  0.20066064     0.63700
H1036       H  0.03889636  0.96006252  0.15639617     0.08100
F1037       F  0.98001380  0.92538099  0.08455531    -0.19400
F1038       F  0.00889651  0.93259078  0.06059331    -0.15600
F1039       F  0.97638621  0.95286935  0.05820339    -0.19100
F1040       F  0.04023869  0.00643437  0.14992303    -0.22500
F1041       F  0.00406017  0.01899303  0.15087793    -0.24000
F1042       F  0.02854656  0.03318052  0.12519613    -0.17900
F1043       F  0.05239175  0.93251491  0.18816151    -0.20400
F1044       F  0.03930711  0.94244795  0.22233038    -0.21600
F1045       F  0.05964653  0.96771702  0.20172322    -0.18800
F1046       F  0.94243968  0.97940711  0.16602497    -0.18900
F1047       F  0.95568014  0.95892154  0.13664264    -0.22700
F1048       F  0.96360372  0.99645841  0.13912032    -0.24300
C1049       C  0.27021966  0.06263418  0.96960213    -0.11100
C1050       C  0.27352941  0.07154979  0.99156359     0.11500
C1051       C  0.27817188  0.05647930  0.00995181    -0.02900
C1052       C  0.27990517  0.03292369  0.00543156    -0.05600
C1053       C  0.27726170  0.02402296  0.98332128    -0.16400
C1054       C  0.27216483  0.03913177  0.96502581     0.02500
C1055       C  0.27111090  0.09672662  0.99444601     0.12400
C1056       C  0.28108472  0.06510729  0.03422912     0.63100
H1057       H  0.28311704  0.02113268  0.01928860     0.12500
C1058       C  0.26850189  0.03072803  0.94082097     0.55200
H1059       H  0.26617355  0.07445518  0.95593808     0.08300
C1060       C  0.28827419  0.11210854  0.98725487    -0.05500
C1061       C  0.28379423  0.13569902  0.98790972    -0.06300
C1062       C  0.26273255  0.14451535  0.99523319    -0.15900
C1063       C  0.24564571  0.12900719  0.00283470    -0.01500
C1064       C  0.25019021  0.10533888  0.00211081    -0.09000
C1065       C  0.31113749  0.10365401  0.97854371     0.65300
H1066       H  0.29684680  0.14755457  0.98242230     0.10700
C1067       C  0.22242903  0.13707994  0.01086539     0.63700
H1068       H  0.23719179  0.09319183  0.00707365     0.08100
F1069       F  0.28873539  0.02242654  0.93228497    -0.19400
F1070       F  0.26125980  0.04802466  0.92638799    -0.15600
F1071       F  0.25219981  0.01372882  0.94056482    -0.19100
F1072       F  0.26129777  0.07555208  0.04148311    -0.22500
F1073       F  0.29873693  0.08065974  0.03509517    -0.24000
F1074       F  0.28594319  0.04754372  0.04935035    -0.17900
F1075       F  0.20779316  0.11901570  0.01506238    -0.20400
F1076       F  0.21262108  0.15075269  0.99428466    -0.21600
F1077       F  0.22462167  0.14925971  0.03096965    -0.18800
F1078       F  0.32591955  0.12148873  0.97390892    -0.18900
F1079       F  0.30819869  0.09141875  0.95859287    -0.22700
F1080       F  0.32120332  0.08976107  0.99474809    -0.24300
C1081       C  0.14238085  0.97456136  0.00102153    -0.11100
C1082       C  0.15059406  0.97596687  0.97854149     0.11500
C1083       C  0.13517952  0.97931468  0.96031995    -0.02900
C1084       C  0.11200020  0.98259110  0.96543888    -0.05600
C1085       C  0.10364669  0.98159311  0.98800098    -0.16400
C1086       C  0.11909315  0.97716164  0.00617175     0.02500
C1087       C  0.17559497  0.97444737  0.97487112     0.12400
C1088       C  0.14309116  0.97863998  0.93558387     0.63100
H1089       H  0.10002101  0.98530063  0.95164935     0.12500
C1090       C  0.11135212  0.97571862  0.03092656     0.55200
H1091       H  0.15454980  0.97153277  0.01458204     0.08300
C1092       C  0.18970477  0.99386519  0.97675321    -0.05500
C1093       C  0.21332069  0.99112567  0.97447971    -0.06300
C1094       C  0.22354913  0.96955652  0.97182819    -0.15900
C1095       C  0.20920444  0.95006325  0.96915788    -0.01500
C1096       C  0.18538961  0.95302933  0.97076462    -0.09000
C1097       C  0.17994419  0.01725762  0.98228407     0.65300
H1098       H  0.22416340  0.00598657  0.97583629     0.10700
C1099       C  0.21833704  0.92620449  0.96471343     0.63700
H1100       H  0.17408191  0.93852198  0.96917717     0.08100
F1101       F  0.12956735  0.97444389  0.04586356    -0.19400
F1102       F  0.09819307  0.95640282  0.03414072    -0.15600
F1103       F  0.09883022  0.99490192  0.03650317    -0.19100
F1104       F  0.15190012  0.95730414  0.93079643    -0.22500
F1105       F  0.15973495  0.99486140  0.93175928    -0.24000
F1106       F  0.12543023  0.98279901  0.92050408    -0.17900
F1107       F  0.23564866  0.92094007  0.97972660    -0.20400
F1108       F  0.22624583  0.92485616  0.94250219    -0.21600
F1109       F  0.20163919  0.90972248  0.96736086    -0.18800
F1110       F  0.19666410  0.03388430  0.98317969    -0.18900
F1111       F  0.16924916  0.01658918  0.00333130    -0.22700
F1112       F  0.16434308  0.02367989  0.96585320    -0.24300
C1113       C  0.25643870  0.95776902  0.07047509    -0.11100
C1114       C  0.27196873  0.97169660  0.08216432     0.11500
C1115       C  0.28965700  0.98257631  0.06973442    -0.02900
C1116       C  0.29021488  0.98036552  0.04572082    -0.05600
C1117       C  0.27392561  0.96745718  0.03393853    -0.16400
C1118       C  0.25716555  0.95539395  0.04649744     0.02500
C1119       C  0.26905988  0.97470215  0.10738493     0.12400
C1120       C  0.30794047  0.99629157  0.08180577     0.63100
H1121       H  0.30335496  0.98883457  0.03586572     0.12500
C1122       C  0.24041564  0.93980126  0.03460924     0.55200
H1123       H  0.24345323  0.94905290  0.08032849     0.08300
C1124       C  0.25302716  0.99027746  0.11662840    -0.05500
C1125       C  0.25090869  0.99208150  0.14062517    -0.06300
C1126       C  0.26447782  0.97907956  0.15544890    -0.15900
C1127       C  0.28074330  0.96383986  0.14622409    -0.01500
C1128       C  0.28246715  0.96157026  0.12227127    -0.09000
C1129       C  0.23843508  0.00509139  0.10114750     0.65300
H1130       H  0.23874255  0.00380894  0.14803936     0.10700
C1131       C  0.29641019  0.95036216  0.16179713     0.63700
H1132       H  0.29450320  0.94967001  0.11492532     0.08100
F1133       F  0.22636371  0.95250404  0.02061815    -0.19400
F1134       F  0.22691293  0.92798175  0.05001162    -0.15600
F1135       F  0.25219688  0.92400816  0.02167699    -0.19100
F1136       F  0.32042054  0.98205023  0.09586584    -0.22500
F1137       F  0.29815912  0.01330616  0.09485738    -0.24000
F1138       F  0.32278190  0.00646632  0.06646746    -0.17900
F1139       F  0.31135808  0.93681908  0.14955677    -0.20400
F1140       F  0.28366939  0.93639506  0.17596715    -0.21600
F1141       F  0.30906038  0.96523141  0.17503076    -0.18800
F1142       F  0.22486163  0.01990164  0.11352726    -0.18900
F1143       F  0.22440345  0.99150381  0.08798374    -0.22700
F1144       F  0.25214683  0.01799442  0.08688948    -0.24300
C1145       C  0.00280006  0.25086680  0.36562791    -0.11100
C1146       C  0.01006244  0.22999691  0.37488026     0.11500
C1147       C  0.01395787  0.21116272  0.36022205    -0.02900
C1148       C  0.01120719  0.21420854  0.33649854    -0.05600
C1149       C  0.00485793  0.23536118  0.32718614    -0.16400
C1150       C  0.00027274  0.25396808  0.34189213     0.02500
C1151       C  0.01243417  0.22820425  0.40013423     0.12400
C1152       C  0.02114473  0.18805028  0.36958056     0.63100
H1153       H  0.01440202  0.20015565  0.32492376     0.12500
C1154       C  0.99214861  0.27674879  0.33258161     0.55200
H1155       H  0.99926318  0.26480016  0.37724419     0.08300
C1156       C  0.03151326  0.23699121  0.41201144    -0.05500
C1157       C  0.03199927  0.23537969  0.43608459    -0.06300
C1158       C  0.01401604  0.22544390  0.44839978    -0.15900
C1159       C  0.99526840  0.21616646  0.43634256    -0.01500
C1160       C  0.99466741  0.21804209  0.41239717    -0.09000
C1161       C  0.05096320  0.24843625  0.39930507     0.65300
H1162       H  0.04612359  0.24251057  0.44556860     0.10700
C1163       C  0.97625298  0.20378695  0.44859214     0.63700
H1164       H  0.98017139  0.21166503  0.40294245     0.08100
F1165       F  0.00911085  0.28675722  0.31960459    -0.19400
F1166       F  0.98643291  0.29173969  0.34992576    -0.15600
F1167       F  0.97309563  0.27346310  0.31911642    -0.19100
F1168       F  0.00410856  0.17915852  0.38324947    -0.22500
F1169       F  0.04075546  0.19031932  0.38239307    -0.24000
F1170       F  0.02542219  0.17254159  0.35227042    -0.17900
F1171       F  0.96471549  0.21878052  0.46254050    -0.20400
F1172       F  0.98538589  0.18626341  0.46145125    -0.21600
F1173       F  0.96070431  0.19438296  0.43354074    -0.18800
F1174       F  0.06867819  0.25403954  0.41381940    -0.18900
F1175       F  0.04333331  0.26828178  0.38906597    -0.22700
F1176       F  0.05937388  0.23398954  0.38265605    -0.24300
C1177       C  0.03620116  0.37006865  0.48274541    -0.11100
C1178       C  0.01627654  0.35720823  0.48522561     0.11500
C1179       C  0.99510206  0.36854628  0.48757098    -0.02900
C1180       C  0.99480346  0.39258902  0.48845672    -0.05600
C1181       C  0.01477304  0.40555727  0.48608057    -0.16400
C1182       C  0.03585709  0.39410611  0.48250365     0.02500
C1183       C  0.01844401  0.33203431  0.48809530     0.12400
C1184       C  0.97289138  0.35529323  0.48866516     0.63100
H1185       H  0.97884149  0.40151319  0.49075014     0.12500
C1186       C  0.05808630  0.40696818  0.47898656     0.55200
H1187       H  0.05217522  0.36099736  0.48131110     0.08300
C1188       C  0.02216662  0.31685165  0.46966081    -0.05500
C1189       C  0.02320719  0.29318957  0.47423578    -0.06300
C1190       C  0.02114450  0.28444428  0.49657793    -0.15900
C1191       C  0.01769802  0.29988040  0.51495626    -0.01500
C1192       C  0.01696808  0.32340917  0.51035314    -0.09000
C1193       C  0.02524809  0.32561752  0.44540989     0.65300
H1194       H  0.02561110  0.28125447  0.46033114     0.10700
C1195       C  0.01416658  0.29186874  0.53932041     0.63700
H1196       H  0.01478053  0.33547397  0.52419748     0.08100
F1197       F  0.05747542  0.41861008  0.45840092    -0.19400
F1198       F  0.07662821  0.39242882  0.47834372    -0.15600
F1199       F  0.06146766  0.42224001  0.49667394    -0.19100
F1200       F  0.97255045  0.34123380  0.50763822    -0.22500
F1201       F  0.97061972  0.34212592  0.46921047    -0.24000
F1202       F  0.95423848  0.36963699  0.48999942    -0.17900
F1203       F  0.03437490  0.28340316  0.54767863    -0.20400
F1204       F  0.99752062  0.27523134  0.54008897    -0.21600
F1205       F  0.00734588  0.30943797  0.55356171    -0.18800
F1206       F  0.02632063  0.30795724  0.42974759    -0.18900
F1207       F  0.04525530  0.33793600  0.44391933    -0.22700
F1208       F  0.00727177  0.33958596  0.43940791    -0.24300
C1209       C  0.01870651  0.52411286  0.36952843    -0.11100
C1210       C  0.02140826  0.50433926  0.35641682     0.11500
C1211       C  0.02147982  0.48265268  0.36712349    -0.02900
C1212       C  0.01776994  0.48148847  0.39083573    -0.05600
C1213       C  0.01430508  0.50124368  0.40396325    -0.16400
C1214       C  0.01525304  0.52299995  0.39329167     0.02500
C1215       C  0.02397745  0.50675895  0.33137593     0.12400
C1216       C  0.02563672  0.46092280  0.35355111     0.63100
H1217       H  0.01765730  0.46507508  0.39939280     0.12500
C1218       C  0.01356896  0.54496015  0.40695772     0.55200
H1219       H  0.01924337  0.54047323  0.36088184     0.08300
C1220       C  0.00487937  0.50822677  0.31689286    -0.05500
C1221       C  0.00838438  0.50741907  0.29323626    -0.06300
C1222       C  0.03021795  0.50540193  0.28357652    -0.15900
C1223       C  0.04955074  0.50537576  0.29824625    -0.01500
C1224       C  0.04590815  0.50656259  0.32199665    -0.09000
C1225       C  0.98090190  0.51046435  0.32638587     0.65300
H1226       H  0.99379678  0.50790995  0.28201167     0.10700
C1227       C  0.07417734  0.50312900  0.29063805     0.63700
H1228       H  0.06036324  0.50612915  0.33349891     0.08100
F1229       F  0.99191484  0.54715944  0.41591400    -0.19400
F1230       F  0.01792388  0.56399039  0.39358077    -0.15600
F1231       F  0.02926914  0.54470186  0.42456978    -0.19100
F1232       F  0.04679821  0.46183617  0.34326054    -0.22500
F1233       F  0.00919289  0.45850783  0.33685573    -0.24000
F1234       F  0.02503897  0.44168780  0.36732848    -0.17900
F1235       F  0.08551386  0.52325216  0.29541956    -0.20400
F1236       F  0.07678352  0.49837615  0.26774816    -0.21600
F1237       F  0.08443459  0.48558697  0.30269732    -0.18800
F1238       F  0.96478401  0.51179868  0.30918236    -0.18900
F1239       F  0.97928264  0.53008435  0.33937098    -0.22700
F1240       F  0.97573069  0.49180887  0.33993027    -0.24300
C1241       C  0.00381146  0.36648577  0.24398976    -0.11100
C1242       C  0.02091338  0.37442034  0.22916990     0.11500
C1243       C  0.03490585  0.35850073  0.21757181    -0.02900
C1244       C  0.03018347  0.33504211  0.22003738    -0.05600
C1245       C  0.01265461  0.32720139  0.23431354    -0.16400
C1246       C  0.99955175  0.34300099  0.24692326     0.02500
C1247       C  0.02415710  0.39954742  0.22705936     0.12400
C1248       C  0.05490866  0.36618829  0.20300318     0.63100
H1249       H  0.04037980  0.32252749  0.21106834     0.12500
C1250       C  0.98127611  0.33495600  0.26339316     0.55200
H1251       H  0.99382166  0.37893545  0.25327742     0.08300
C1252       C  0.01007886  0.41320274  0.21291212    -0.05500
C1253       C  0.01263781  0.43712871  0.21353834    -0.06300
C1254       C  0.02867880  0.44761441  0.22781150    -0.15900
C1255       C  0.04318852  0.43390664  0.24140544    -0.01500
C1256       C  0.04050778  0.41002738  0.24096314    -0.09000
C1257       C  0.99229714  0.40252737  0.19743474     0.65300
H1258       H  0.00177283  0.44793689  0.20321835     0.10700
C1259       C  0.06120429  0.44448872  0.25650305     0.63700
H1260       H  0.05085096  0.39929367  0.25188395     0.08100
F1261       F  0.96516914  0.32233667  0.25171693    -0.19400
F1262       F  0.97037895  0.35305636  0.27393006    -0.15600
F1263       F  0.99094154  0.32146949  0.28020861    -0.19100
F1264       F  0.07021135  0.37820055  0.21627298    -0.22500
F1265       F  0.04743881  0.38005077  0.18542704    -0.24000
F1266       F  0.06634200  0.34786034  0.19347610    -0.17900
F1267       F  0.05087047  0.45733305  0.27331389    -0.20400
F1268       F  0.07525773  0.45826059  0.24344768    -0.21600
F1269       F  0.07458514  0.42814531  0.26706519    -0.18800
F1270       F  0.98074879  0.41882012  0.18481467    -0.18900
F1271       F  0.97653685  0.39064387  0.21035070    -0.22700
F1272       F  0.00261229  0.38766591  0.18232480    -0.24300
C1273       C  0.58225119  0.04277132  0.18527589    -0.11100
C1274       C  0.57230880  0.06177854  0.17478463     0.11500
C1275       C  0.54898065  0.06613078  0.17831606    -0.02900
C1276       C  0.53648019  0.05137438  0.19261865    -0.05600
C1277       C  0.54583438  0.03133369  0.20245807    -0.16400
C1278       C  0.56991599  0.02800830  0.19985424     0.02500
C1279       C  0.58675309  0.07668243  0.15993811     0.12400
C1280       C  0.53712556  0.08604415  0.16656053     0.63100
H1281       H  0.51927112  0.05616033  0.19636027     0.12500
C1282       C  0.58407609  0.00955659  0.21151103     0.55200
H1283       H  0.60020241  0.03968076  0.18230949     0.08300
C1284       C  0.60104964  0.09379943  0.16880941    -0.05500
C1285       C  0.61439290  0.10689253  0.15359039    -0.06300
C1286       C  0.61496250  0.10307037  0.12949510    -0.15900
C1287       C  0.59852575  0.08673679  0.12075234    -0.01500
C1288       C  0.58559579  0.07361611  0.13638142    -0.09000
C1289       C  0.60252940  0.09790676  0.19442917     0.65300
H1290       H  0.62457942  0.12013039  0.16101985     0.10700
C1291       C  0.59301121  0.08285956  0.09544869     0.63700
H1292       H  0.57389728  0.06069609  0.13034915     0.08100
F1293       F  0.57365968  0.99955067  0.23009705    -0.19400
F1294       F  0.60417031  0.01897532  0.21946331    -0.15600
F1295       F  0.58938557  0.99282405  0.19574144    -0.19100
F1296       F  0.53747217  0.08287927  0.14315306    -0.22500
F1297       F  0.54800899  0.10629951  0.17169428    -0.24000
F1298       F  0.51461641  0.08804799  0.17323881    -0.17900
F1299       F  0.57949755  0.06377296  0.09212135    -0.20400
F1300       F  0.61231079  0.07938690  0.08261342    -0.21600
F1301       F  0.58090262  0.10120733  0.08701841    -0.18800
F1302       F  0.61652926  0.11616665  0.19966863    -0.18900
F1303       F  0.61119588  0.07872488  0.20509010    -0.22700
F1304       F  0.58118205  0.10246464  0.20321226    -0.24300
C1305       C  0.42632418  0.00574939  0.21383134    -0.11100
C1306       C  0.41843769  0.00551423  0.23647055     0.11500
C1307       C  0.43409099  0.00587988  0.25474112    -0.02900
C1308       C  0.45733655  0.00549979  0.24961208    -0.05600
C1309       C  0.46548706  0.00528436  0.22699893    -0.16400
C1310       C  0.44970795  0.00592727  0.20860329     0.02500
C1311       C  0.39376880  0.00262700  0.24046950     0.12400
C1312       C  0.42635296  0.00658132  0.27956227     0.63100
H1313       H  0.46943680  0.00512611  0.26350293     0.12500
C1314       C  0.45673944  0.00715884  0.18360013     0.55200
H1315       H  0.41388695  0.00556638  0.20017993     0.08300
C1316       C  0.37820364  0.02086547  0.23838461    -0.05500
C1317       C  0.35498939  0.01629383  0.24169162    -0.06300
C1318       C  0.34695936  0.99419080  0.24668410    -0.15900
C1319       C  0.36267382  0.97601111  0.24905252    -0.01500
C1320       C  0.38590584  0.98061393  0.24566984    -0.09000
C1321       C  0.38594277  0.04485264  0.23213060     0.65300
H1322       H  0.34274098  0.02998213  0.23986891     0.10700
C1323       C  0.35507795  0.95179926  0.25430869     0.63700
H1324       H  0.39827340  0.96696534  0.24686339     0.08100
F1325       F  0.46106660  0.02962034  0.17777533    -0.19400
F1326       F  0.43964412  0.99909229  0.16948279    -0.15600
F1327       F  0.47586905  0.99424123  0.17930660    -0.19100
F1328       F  0.41440939  0.98698298  0.28495004    -0.22500
F1329       F  0.41251105  0.02530411  0.28306219    -0.24000
F1330       F  0.44454425  0.00821394  0.29450275    -0.17900
F1331       F  0.37313145  0.93662182  0.25412600    -0.20400
F1332       F  0.33948672  0.94465669  0.23813922    -0.21600
F1333       F  0.34524463  0.95099136  0.27577452    -0.18800
F1334       F  0.36812877  0.06029741  0.23267773    -0.18900
F1335       F  0.39493824  0.04496010  0.21029424    -0.22700
F1336       F  0.40234609  0.05227666  0.24729659    -0.24300
C1337       C  0.48886266  0.98912003  0.36213405    -0.11100
C1338       C  0.50986689  0.99487314  0.35227492     0.11500
C1339       C  0.52902621  0.99882355  0.36634593    -0.02900
C1340       C  0.52649108  0.99668374  0.39013763    -0.05600
C1341       C  0.50543717  0.99120966  0.40004115    -0.16400
C1342       C  0.48634748  0.98698397  0.38596994     0.02500
C1343       C  0.51147138  0.99648047  0.32706928     0.12400
C1344       C  0.55185723  0.00577853  0.35625343     0.63100
H1345       H  0.54082678  0.99989515  0.40130353     0.12500
C1346       C  0.46381352  0.97930590  0.39608831     0.55200
H1347       H  0.47450262  0.98616130  0.35093588     0.08300
C1348       C  0.51613825  0.97714540  0.31348688    -0.05500
C1349       C  0.51945464  0.98024796  0.28991572    -0.06300
C1350       C  0.51741235  0.00178116  0.27949266    -0.15900
C1351       C  0.51092553  0.02088013  0.29296272    -0.01500
C1352       C  0.50848272  0.01786477  0.31673327    -0.09000
C1353       C  0.51696291  0.95331466  0.32380454     0.65300
H1354       H  0.52320695  0.96565576  0.27930328     0.10700
C1355       C  0.50593189  0.04418017  0.28260084     0.63700
H1356       H  0.50434006  0.03225404  0.32756650     0.08100
F1357       F  0.44811339  0.97402570  0.37929095    -0.19400
F1358       F  0.45472278  0.99640201  0.40953336    -0.15600
F1359       F  0.46718087  0.96000784  0.40933608    -0.19100
F1360       F  0.54975028  0.02657521  0.34525683    -0.22500
F1361       F  0.55919002  0.98965789  0.34068716    -0.24000
F1362       F  0.56842972  0.00790477  0.37291049    -0.17900
F1363       F  0.49525296  0.05842317  0.29813382    -0.20400
F1364       F  0.49175071  0.04212735  0.26389598    -0.21600
F1365       F  0.52597106  0.05451925  0.27591597    -0.18800
F1366       F  0.52198487  0.93690631  0.30757201    -0.18900
F1367       F  0.49604932  0.94802536  0.33326521    -0.22700
F1368       F  0.53335315  0.95219468  0.34068159    -0.24300
C1369       C  0.50365423  0.12119453  0.49975229    -0.11100
C1370       C  0.49887483  0.13066372  0.47827988     0.11500
C1371       C  0.49522091  0.11621568  0.45930430    -0.02900
C1372       C  0.49701228  0.09249228  0.46247236    -0.05600
C1373       C  0.50190141  0.08284816  0.48398148    -0.16400
C1374       C  0.50452066  0.09743844  0.50317898     0.02500
C1375       C  0.49849808  0.15587137  0.47612634     0.12400
C1376       C  0.48938255  0.12582676  0.43586834     0.63100
H1377       H  0.49475876  0.08123438  0.44798955     0.12500
C1378       C  0.50723710  0.08822665  0.52731899     0.55200
H1379       H  0.50658448  0.13269342  0.51393139     0.08300
C1380       C  0.47969953  0.16908672  0.48344442    -0.05500
C1381       C  0.48079953  0.19293369  0.48103144    -0.06300
C1382       C  0.50021738  0.20374017  0.47225867    -0.15900
C1383       C  0.51911092  0.19057093  0.46524372    -0.01500
C1384       C  0.51788963  0.16669830  0.46728177    -0.09000
C1385       C  0.45875269  0.15810912  0.49400871     0.65300
H1386       H  0.46670674  0.20347873  0.48656664     0.10700
C1387       C  0.54048668  0.20166662  0.45591632     0.63700
H1388       H  0.53223202  0.15622146  0.46230439     0.08100
F1389       F  0.49068307  0.07198711  0.53171339    -0.19400
F1390       F  0.50496626  0.10527755  0.54352781    -0.15600
F1391       F  0.52853262  0.07857582  0.52985677    -0.19100
F1392       F  0.50730874  0.13872475  0.42764877    -0.22500
F1393       F  0.47025795  0.13945926  0.43734947    -0.24000
F1394       F  0.48495042  0.10872525  0.42018499    -0.17900
F1395       F  0.55097689  0.21386266  0.47309509    -0.20400
F1396       F  0.53501995  0.21617996  0.43807335    -0.21600
F1397       F  0.55584779  0.18569367  0.44783079    -0.18800
F1398       F  0.44210676  0.17406688  0.49893991    -0.18900
F1399       F  0.46453657  0.14727746  0.51418597    -0.22700
F1400       F  0.44960972  0.14229775  0.47911383    -0.24300
C1401       C  0.40517409  0.31660704  0.40144191    -0.11100
C1402       C  0.42848138  0.32126414  0.40115164     0.11500
C1403       C  0.43685902  0.33758359  0.38558994    -0.02900
C1404       C  0.42133132  0.34966079  0.37185126    -0.05600
C1405       C  0.39720065  0.34812335  0.37437625    -0.16400
C1406       C  0.38923054  0.32916624  0.38822166     0.02500
C1407       C  0.44380158  0.30817991  0.41682736     0.12400
C1408       C  0.46220698  0.34257825  0.38363954     0.63100
H1409       H  0.42866421  0.36040109  0.35894131     0.12500
C1410       C  0.36459451  0.32080062  0.38914539     0.55200
H1411       H  0.39960517  0.30283812  0.41247518     0.08300
C1412       C  0.44642649  0.31397989  0.44015663    -0.05500
C1413       C  0.46089246  0.30071519  0.45392885    -0.06300
C1414       C  0.47307397  0.28183199  0.44538506    -0.15900
C1415       C  0.47285806  0.27832130  0.42115258    -0.01500
C1416       C  0.45689142  0.29037309  0.40780157    -0.09000
C1417       C  0.43399787  0.33409025  0.45061113     0.65300
H1418       H  0.46301303  0.30549074  0.47160606     0.10700
C1419       C  0.48937261  0.26321795  0.40798240     0.63700
H1420       H  0.45537150  0.28656999  0.38973103     0.08100
F1421       F  0.36140285  0.30417620  0.40571777    -0.19400
F1422       F  0.35875982  0.31103783  0.36851170    -0.15600
F1423       F  0.34976626  0.33819976  0.39432922    -0.19100
F1424       F  0.47324170  0.32404499  0.37418434    -0.22500
F1425       F  0.47127147  0.34695413  0.40499169    -0.24000
F1426       F  0.46653178  0.36143491  0.36999767    -0.17900
F1427       F  0.47855696  0.24324143  0.40169529    -0.20400
F1428       F  0.50882207  0.25800480  0.42004934    -0.21600
F1429       F  0.49641466  0.27440934  0.38832748    -0.18800
F1430       F  0.44023712  0.33779828  0.47312241    -0.18900
F1431       F  0.41091331  0.32996656  0.45019882    -0.22700
F1432       F  0.43883056  0.35373021  0.43844009    -0.24300
C1433       C  0.35741441  0.32633261  0.31346950    -0.11100
C1434       C  0.33403168  0.32725281  0.31738516     0.11500
C1435       C  0.32575871  0.34023007  0.33585912    -0.02900
C1436       C  0.34127915  0.35265442  0.34931812    -0.05600
C1437       C  0.36532812  0.35225140  0.34583737    -0.16400
C1438       C  0.37343716  0.33768065  0.32751380     0.02500
C1439       C  0.31904623  0.31162400  0.30397878     0.12400
C1440       C  0.30057718  0.34019849  0.34201287     0.63100
H1441       H  0.33418553  0.36201994  0.36337848     0.12500
C1442       C  0.39836590  0.33138881  0.32327287     0.55200
H1443       H  0.36304469  0.31516795  0.29986826     0.08300
C1444       C  0.31036407  0.31709830  0.28212538    -0.05500
C1445       C  0.29664399  0.30089412  0.27073797    -0.06300
C1446       C  0.29105059  0.27939869  0.28044266    -0.15900
C1447       C  0.29771924  0.27561810  0.30368776    -0.01500
C1448       C  0.31311530  0.29080478  0.31400612    -0.09000
C1449       C  0.31565410  0.33989420  0.27085142     0.65300
H1450       H  0.28972741  0.30547031  0.25429806     0.10700
C1451       C  0.28854640  0.25699412  0.31926027     0.63700
H1452       H  0.31962664  0.28700141  0.33094304     0.08100
F1453       F  0.40134559  0.32041980  0.30252413    -0.19400
F1454       F  0.40565975  0.31648019  0.34003692    -0.15600
F1455       F  0.41229737  0.35020690  0.32260857    -0.19100
F1456       F  0.29426412  0.31879033  0.34969319    -0.22500
F1457       F  0.28761692  0.34576323  0.32312211    -0.24000
F1458       F  0.29556030  0.35573422  0.35908753    -0.17900
F1459       F  0.28419089  0.26593543  0.34073216    -0.20400
F1460       F  0.30457622  0.23990021  0.32149079    -0.21600
F1461       F  0.26834773  0.24793911  0.31169079    -0.18800
F1462       F  0.30481249  0.34223340  0.24996650    -0.18900
F1463       F  0.33880509  0.34181338  0.26722374    -0.22700
F1464       F  0.30859913  0.35759459  0.28472713    -0.24300
C1465       C  0.44885828  0.45168707  0.32082855    -0.11100
C1466       C  0.44745707  0.42815274  0.31690832     0.11500
C1467       C  0.46322604  0.41790906  0.30174215    -0.02900
C1468       C  0.47809590  0.43206075  0.28914123    -0.05600
C1469       C  0.47821376  0.45603552  0.29161099    -0.16400
C1470       C  0.46563426  0.46527849  0.31032394     0.02500
C1471       C  0.42940448  0.41466067  0.32886069     0.12400
C1472       C  0.46417564  0.39218897  0.29861051     0.63100
H1473       H  0.48925768  0.42444811  0.27656230     0.12500
C1474       C  0.47111306  0.48763017  0.32223355     0.55200
H1475       H  0.43742183  0.45941732  0.33309997     0.08300
C1476       C  0.42903173  0.41115278  0.35272638    -0.05500
C1477       C  0.41140477  0.39789992  0.36218491    -0.06300
C1478       C  0.39544605  0.38555067  0.34877287    -0.15900
C1479       C  0.39365458  0.39290788  0.32510028    -0.01500
C1480       C  0.41155732  0.40605544  0.31574892    -0.09000
C1481       C  0.44766649  0.42031290  0.36822162     0.65300
H1482       H  0.41119367  0.39549597  0.38042489     0.10700
C1483       C  0.37397119  0.38973826  0.30824013     0.63700
H1484       H  0.41129539  0.41044179  0.29771517     0.08100
F1485       F  0.47218158  0.48398896  0.34560913    -0.19400
F1486       F  0.45412135  0.50339706  0.31799487    -0.15600
F1487       F  0.49197150  0.49641131  0.31576442    -0.19100
F1488       F  0.44511320  0.38475077  0.28700648    -0.22500
F1489       F  0.46512142  0.38150329  0.31970062    -0.24000
F1490       F  0.48317063  0.38563162  0.28625527    -0.17900
F1491       F  0.37001344  0.41016289  0.29691800    -0.20400
F1492       F  0.35347028  0.38401807  0.31778731    -0.21600
F1493       F  0.37987177  0.37358907  0.29208919    -0.18800
F1494       F  0.44679841  0.41052580  0.38978179    -0.18900
F1495       F  0.44531876  0.44362362  0.37073711    -0.22700
F1496       F  0.46882844  0.41556939  0.35904281    -0.24300
C1497       C  0.49154837  0.45887483  0.11951030    -0.11100
C1498       C  0.50608179  0.46976329  0.13500687     0.11500
C1499       C  0.52348329  0.48442151  0.12676726    -0.02900
C1500       C  0.52496379  0.48859537  0.10309693    -0.05600
C1501       C  0.50950517  0.47876932  0.08780296    -0.16400
C1502       C  0.49268267  0.46347797  0.09594423     0.02500
C1503       C  0.50163306  0.46692719  0.15984432     0.12400
C1504       C  0.54032582  0.49559327  0.14292492     0.63100
H1505       H  0.53803352  0.49977260  0.09633523     0.12500
C1506       C  0.47586088  0.45234273  0.07976077     0.55200
H1507       H  0.47875473  0.44732986  0.12617853     0.08300
C1508       C  0.48381538  0.47891301  0.17085707    -0.05500
C1509       C  0.48229321  0.47777669  0.19478012    -0.06300
C1510       C  0.49871880  0.46649771  0.20784339    -0.15900
C1511       C  0.51492234  0.45239315  0.19679539    -0.01500
C1512       C  0.51595913  0.45276455  0.17276763    -0.09000
C1513       C  0.46727249  0.49383759  0.15759685     0.65300
H1514       H  0.46897417  0.48684084  0.20362734     0.10700
C1515       C  0.53098867  0.43631181  0.20918237     0.63700
H1516       H  0.52866506  0.44257899  0.16403844     0.08100
F1517       F  0.46290036  0.46896699  0.06918298    -0.19400
F1518       F  0.46127329  0.43758633  0.09108696    -0.15600
F1519       F  0.48741478  0.44003020  0.06330790    -0.19100
F1520       F  0.55313524  0.47896155  0.15362581    -0.22500
F1521       F  0.52887694  0.50820513  0.15925126    -0.24000
F1522       F  0.55511411  0.51007119  0.13151181    -0.17900
F1523       F  0.52609145  0.41414420  0.20277738    -0.20400
F1524       F  0.52930227  0.43757573  0.23269579    -0.21600
F1525       F  0.55318287  0.44110666  0.20298736    -0.18800
F1526       F  0.45189313  0.50464632  0.17186996    -0.18900
F1527       F  0.45499862  0.48072562  0.14236144    -0.22700
F1528       F  0.47911669  0.51046264  0.14570550    -0.24300
C1529       C  0.18493163  0.50498569  0.48076579    -0.11100
C1530       C  0.17369701  0.48526118  0.48809964     0.11500
C1531       C  0.18589035  0.46455722  0.49032614    -0.02900
C1532       C  0.20958393  0.46480232  0.48667154    -0.05600
C1533       C  0.22100741  0.48476188  0.47984323    -0.16400
C1534       C  0.20834048  0.50507150  0.47611236     0.02500
C1535       C  0.14861596  0.48648484  0.49002181     0.12400
C1536       C  0.17382018  0.44230452  0.49590529     0.63100
H1537       H  0.21943233  0.44937529  0.48913301     0.12500
C1538       C  0.21889204  0.52641333  0.46596189     0.55200
H1539       H  0.17495333  0.52032885  0.47824841     0.08300
C1540       C  0.13738392  0.49424826  0.50993845    -0.05500
C1541       C  0.11349790  0.49611713  0.50961841    -0.06300
C1542       C  0.10076771  0.49125370  0.48984976    -0.15900
C1543       C  0.11242501  0.48466665  0.46947945    -0.01500
C1544       C  0.13614920  0.48217598  0.47018093    -0.09000
C1545       C  0.15060122  0.50103122  0.53117119     0.65300
H1546       H  0.10456979  0.50146208  0.52489473     0.10700
C1547       C  0.10040296  0.48098091  0.44672520     0.63700
H1548       H  0.14540341  0.47706023  0.45500381     0.08100
F1549       F  0.23251289  0.53701813  0.48188337    -0.19400
F1550       F  0.20257572  0.54199892  0.45905086    -0.15600
F1551       F  0.23152724  0.52064846  0.44696677    -0.19100
F1552       F  0.15834823  0.43726369  0.47886375    -0.22500
F1553       F  0.16238527  0.44412873  0.51645679    -0.24000
F1554       F  0.18890105  0.42424589  0.49758863    -0.17900
F1555       F  0.11565405  0.47885638  0.42878392    -0.20400
F1556       F  0.08648330  0.49940081  0.44189407    -0.21600
F1557       F  0.08762174  0.46117692  0.44754452    -0.18800
F1558       F  0.13633344  0.50786447  0.54871748    -0.18900
F1559       F  0.16501972  0.51898430  0.52607445    -0.22700
F1560       F  0.16335030  0.48282943  0.53895736    -0.24300
C1561       C  0.33398597  0.44232942  0.43340194    -0.11100
C1562       C  0.32290763  0.42483264  0.42166780     0.11500
C1563       C  0.29993878  0.42006843  0.42670778    -0.02900
C1564       C  0.28818112  0.43451526  0.44195104    -0.05600
C1565       C  0.29881104  0.45312259  0.45311797    -0.16400
C1566       C  0.32295656  0.45563241  0.45005167     0.02500
C1567       C  0.33689903  0.41003247  0.40653263     0.12400
C1568       C  0.28829480  0.39912722  0.41683513     0.63100
H1569       H  0.27078974  0.43036095  0.44594112     0.12500
C1570       C  0.33867788  0.47137529  0.46349964     0.55200
H1571       H  0.35199691  0.44489325  0.43021419     0.08300
C1572       C  0.34017408  0.41463995  0.38318619    -0.05500
C1573       C  0.35394004  0.39973156  0.37038527    -0.06300
C1574       C  0.36728101  0.38187106  0.38018823    -0.15900
C1575       C  0.36719995  0.38130380  0.40503172    -0.01500
C1576       C  0.34987217  0.39306013  0.41684614    -0.09000
C1577       C  0.33011180  0.43583219  0.37210034     0.65300
H1578       H  0.35492033  0.40266332  0.35232111     0.10700
C1579       C  0.38512914  0.37160085  0.42112995     0.63700
H1580       H  0.34802720  0.39082542  0.43518526     0.08100
F1581       F  0.34568307  0.48912986  0.44954794    -0.19400
F1582       F  0.35771469  0.45931165  0.47043894    -0.15600
F1583       F  0.32911885  0.48031276  0.48295342    -0.19100
F1584       F  0.29887336  0.37967919  0.42498500    -0.22500
F1585       F  0.28964413  0.39928605  0.39325663    -0.24000
F1586       F  0.26553263  0.39809969  0.42281808    -0.17900
F1587       F  0.38792352  0.38577931  0.43988513    -0.20400
F1588       F  0.40631228  0.37019315  0.41152006    -0.21600
F1589       F  0.37800811  0.35065893  0.42924906    -0.18800
F1590       F  0.33533551  0.43718775  0.34904729    -0.18900
F1591       F  0.33880291  0.45505157  0.38265324    -0.22700
F1592       F  0.30672949  0.43589999  0.37430321    -0.24300
C1593       C  0.02612268  0.62288998  0.49445855    -0.11100
C1594       C  0.00489372  0.63180552  0.48807150     0.11500
C1595       C  0.98669309  0.61676447  0.48344116    -0.02900
C1596       C  0.99021489  0.59318297  0.48593559    -0.05600
C1597       C  0.01142228  0.58394566  0.49230091    -0.16400
C1598       C  0.02983104  0.59913441  0.49665481     0.02500
C1599       C  0.00223219  0.65697764  0.48566109     0.12400
C1600       C  0.96371811  0.62557344  0.47542172     0.63100
H1601       H  0.97621121  0.58165067  0.48264177     0.12500
C1602       C  0.05341288  0.59056966  0.50285150     0.55200
H1603       H  0.03984900  0.63481858  0.49756375     0.08300
C1604       C  0.99706285  0.67112102  0.50451931    -0.05500
C1605       C  0.99335766  0.69453672  0.50064168    -0.06300
C1606       C  0.99517401  0.70436033  0.47875663    -0.15900
C1607       C  0.00144398  0.69028063  0.46003183    -0.01500
C1608       C  0.00464383  0.66671644  0.46386636    -0.09000
C1609       C  0.99604787  0.66161019  0.52868918     0.65300
H1610       H  0.98959048  0.70554837  0.51493020     0.10700
C1611       C  0.00559391  0.69996008  0.43629303     0.63700
H1612       H  0.00904371  0.65555497  0.44980152     0.08100
F1613       F  0.06901610  0.60822143  0.50438072    -0.19400
F1614       F  0.06104020  0.57557289  0.48629238    -0.15600
F1615       F  0.05278098  0.57965010  0.52382058    -0.19100
F1616       F  0.96615822  0.63646878  0.45458084    -0.22500
F1617       F  0.95496143  0.64080921  0.49113689    -0.24000
F1618       F  0.94808584  0.60810180  0.47271651    -0.17900
F1619       F  0.01469810  0.68379588  0.42167460    -0.20400
F1620       F  0.02074462  0.71796961  0.43739291    -0.21600
F1621       F  0.98532553  0.70737899  0.42699232    -0.18800
F1622       F  0.99053010  0.67826248  0.54450578    -0.18900
F1623       F  0.01700547  0.65270719  0.53459411    -0.22700
F1624       F  0.97985970  0.64455264  0.53010310    -0.24300
C1625       C  0.67393205  0.96558285  0.47624399    -0.11100
C1626       C  0.66544334  0.98787656  0.47487639     0.11500
C1627       C  0.68068114  0.00643954  0.47309134    -0.02900
C1628       C  0.70413665  0.00197890  0.47354437    -0.05600
C1629       C  0.71290715  0.97969722  0.47545664    -0.16400
C1630       C  0.69745579  0.96097114  0.47606950     0.02500
C1631       C  0.64048120  0.99121020  0.47669901     0.12400
C1632       C  0.67223281  0.03087305  0.47094570     0.63100
H1633       H  0.71592027  0.01614917  0.47294542     0.12500
C1634       C  0.70521306  0.93628213  0.47691406     0.55200
H1635       H  0.66177644  0.95175033  0.47761328     0.08300
C1636       C  0.62573096  0.98753478  0.45800529    -0.05500
C1637       C  0.60219678  0.99024296  0.46138055    -0.06300
C1638       C  0.59299195  0.99605220  0.48284451    -0.15900
C1639       C  0.60790725  0.99974673  0.50157263    -0.01500
C1640       C  0.63146672  0.99712353  0.49809138    -0.09000
C1641       C  0.63475607  0.98009571  0.43481712     0.65300
H1642       H  0.59067148  0.98732427  0.44725342     0.10700
C1643       C  0.59915570  0.00565202  0.52529005     0.63700
H1644       H  0.64318893  0.99947004  0.51216744     0.08100
F1645       F  0.71534116  0.93048296  0.45643896    -0.19400
F1646       F  0.68723234  0.92138624  0.48038643    -0.15600
F1647       F  0.72035520  0.93312275  0.49457147    -0.19100
F1648       F  0.65977059  0.03677896  0.49007648    -0.22500
F1649       F  0.65861802  0.03298991  0.45181954    -0.24000
F1650       F  0.68999955  0.04626906  0.46883332    -0.17900
F1651       F  0.58344251  0.98951365  0.53235930    -0.20400
F1652       F  0.58908544  0.02697426  0.52490803    -0.21600
F1653       F  0.61647259  0.00618893  0.54130061    -0.18800
F1654       F  0.61772282  0.97926662  0.41851745    -0.18900
F1655       F  0.64419574  0.95856608  0.43656731    -0.22700
F1656       F  0.65120411  0.99516788  0.42720139    -0.24300
C1657       C  0.90831452  0.92040546  0.33602643    -0.11100
C1658       C  0.92278838  0.90897268  0.32103036     0.11500
C1659       C  0.92460619  0.88502543  0.32291553    -0.02900
C1660       C  0.90973517  0.87340661  0.33781769    -0.05600
C1661       C  0.89379092  0.88448527  0.35242066    -0.16400
C1662       C  0.89639640  0.90910894  0.35370003     0.02500
C1663       C  0.93794651  0.92333367  0.30641241     0.12400
C1664       C  0.94211789  0.87074060  0.31028727     0.63100
H1665       H  0.91071188  0.85504706  0.33795055     0.12500
C1666       C  0.89028680  0.92510415  0.37339003     0.55200
H1667       H  0.90823838  0.93892489  0.33532997     0.08300
C1668       C  0.93352100  0.92742860  0.28305732    -0.05500
C1669       C  0.94854884  0.94156309  0.27062971    -0.06300
C1670       C  0.96788896  0.95194363  0.28069044    -0.15900
C1671       C  0.96982498  0.95053840  0.30506376    -0.01500
C1672       C  0.95576208  0.93510780  0.31704510    -0.09000
C1673       C  0.91282270  0.91710514  0.27146504     0.65300
H1674       H  0.94473387  0.94492361  0.25291229     0.10700
C1675       C  0.98526835  0.96532176  0.31978112     0.63700
H1676       H  0.95803711  0.93293584  0.33532484     0.08100
F1677       F  0.90731613  0.94123787  0.37626062    -0.19400
F1678       F  0.88854920  0.91451646  0.39422483    -0.15600
F1679       F  0.87051181  0.93670573  0.36829273    -0.19100
F1680       F  0.95548452  0.88321109  0.29536505    -0.22500
F1681       F  0.93116270  0.85389327  0.29793424    -0.24000
F1682       F  0.95629380  0.86047799  0.32611108    -0.17900
F1683       F  0.99273999  0.98475593  0.30874163    -0.20400
F1684       F  0.00377877  0.95264123  0.32692215    -0.21600
F1685       F  0.97351725  0.97254760  0.33898111    -0.18800
F1686       F  0.91112439  0.92373796  0.24879731    -0.18900
F1687       F  0.89328442  0.92401454  0.28266566    -0.22700
F1688       F  0.91409813  0.89356912  0.27209632    -0.24300
C1689       C  0.95915028  0.80492368  0.41525399    -0.11100
C1690       C  0.93885872  0.81304750  0.42472865     0.11500
C1691       C  0.93155180  0.80436594  0.44603463    -0.02900
C1692       C  0.94604019  0.78947819  0.45817102    -0.05600
C1693       C  0.96740903  0.78233925  0.44952873    -0.16400
C1694       C  0.97260784  0.78838813  0.42635796     0.02500
C1695       C  0.92376603  0.82715925  0.40991796     0.12400
C1696       C  0.90814473  0.81014962  0.45544828     0.63100
H1697       H  0.94014917  0.78266778  0.47428201     0.12500
C1698       C  0.99047357  0.77693228  0.41146538     0.55200
H1699       H  0.96362470  0.81034995  0.39807962     0.08300
C1700       C  0.92513414  0.85108641  0.40859428    -0.05500
C1701       C  0.90998024  0.86271389  0.39400756    -0.06300
C1702       C  0.89394239  0.85154474  0.37953012    -0.15900
C1703       C  0.89666974  0.82693475  0.37794398    -0.01500
C1704       C  0.90951017  0.81563496  0.39488225    -0.09000
C1705       C  0.94275893  0.86423944  0.42223901     0.65300
H1706       H  0.91048416  0.88105184  0.39401988     0.10700
C1707       C  0.88919007  0.81107732  0.35864553     0.63700
H1708       H  0.90979495  0.79712089  0.39545088     0.08100
F1709       F  0.98122048  0.77198455  0.39028017    -0.19400
F1710       F  0.99811993  0.75653856  0.42034780    -0.15600
F1711       F  0.00864885  0.79159891  0.40826882    -0.19100
F1712       F  0.89160183  0.80143043  0.44112588    -0.22500
F1713       F  0.90547718  0.83352682  0.45687893    -0.24000
F1714       F  0.90475572  0.80107571  0.47705627    -0.17900
F1715       F  0.88837120  0.82167163  0.33774587    -0.20400
F1716       F  0.86858334  0.80117257  0.36398449    -0.21600
F1717       F  0.90468702  0.79346300  0.35583071    -0.18800
F1718       F  0.94100490  0.88756967  0.41882176    -0.18900
F1719       F  0.96431572  0.85752534  0.41561239    -0.22700
F1720       F  0.94012392  0.85997230  0.44532497    -0.24300
C1721       C  0.83179217  0.91122827  0.39224857    -0.11100
C1722       C  0.83596727  0.90921840  0.41566764     0.11500
C1723       C  0.85120303  0.89230713  0.42333390    -0.02900
C1724       C  0.86252870  0.87868063  0.40707652    -0.05600
C1725       C  0.86062658  0.88195256  0.38292833    -0.16400
C1726       C  0.84333421  0.89800497  0.37558888     0.02500
C1727       C  0.82287095  0.92420759  0.43171635     0.12400
C1728       C  0.85565584  0.88863562  0.44871126     0.63100
H1729       H  0.87290101  0.86519788  0.41380546     0.12500
C1730       C  0.83529321  0.90107150  0.35087285     0.55200
H1731       H  0.81887302  0.92337677  0.38718067     0.08300
C1732       C  0.82853930  0.94734509  0.43550569    -0.05500
C1733       C  0.81440552  0.96072884  0.44969653    -0.06300
C1734       C  0.79465875  0.95195772  0.46047968    -0.15900
C1735       C  0.79095810  0.92775048  0.45869314    -0.01500
C1736       C  0.80423672  0.91492495  0.44327860    -0.09000
C1737       C  0.84938572  0.95795227  0.42439511     0.65300
H1738       H  0.81934360  0.97813746  0.45259580     0.10700
C1739       C  0.77401178  0.91364400  0.47242665     0.63700
H1740       H  0.80031716  0.89702472  0.44064108     0.08100
F1741       F  0.82137573  0.91998085  0.34839780    -0.19400
F1742       F  0.82264440  0.88237692  0.34423612    -0.15600
F1743       F  0.85317306  0.90420203  0.33601222    -0.19100
F1744       F  0.83640215  0.87993818  0.45912348    -0.22500
F1745       F  0.86139319  0.90907724  0.45897484    -0.24000
F1746       F  0.87333461  0.87349195  0.45250186    -0.17900
F1747       F  0.75743065  0.90527515  0.45794525    -0.20400
F1748       F  0.76367532  0.92526780  0.48990578    -0.21600
F1749       F  0.78524621  0.89533966  0.48228799    -0.18800
F1750       F  0.85306919  0.98010320  0.43172335    -0.18900
F1751       F  0.84655702  0.95846298  0.40097890    -0.22700
F1752       F  0.86851858  0.94529101  0.42965128    -0.24300
C1753       C  0.80373813  0.82031204  0.28841761    -0.11100
C1754       C  0.82122458  0.81145952  0.30201201     0.11500
C1755       C  0.82592651  0.78786278  0.30079283    -0.02900
C1756       C  0.81294195  0.77395375  0.28605538    -0.05600
C1757       C  0.79527669  0.78254064  0.27191163    -0.16400
C1758       C  0.79062082  0.80662500  0.27345884     0.02500
C1759       C  0.83403192  0.82723391  0.31769980     0.12400
C1760       C  0.84455298  0.77706959  0.31523150     0.63100
H1761       H  0.81652736  0.75650293  0.28657648     0.12500
C1762       C  0.77280691  0.81988528  0.25986400     0.55200
H1763       H  0.80007265  0.83836939  0.28974396     0.08300
C1764       C  0.85003118  0.84329297  0.30965225    -0.05500
C1765       C  0.86172435  0.85709468  0.32553806    -0.06300
C1766       C  0.86001072  0.85426742  0.34974740    -0.15900
C1767       C  0.84217384  0.83894761  0.35751510    -0.01500
C1768       C  0.82970077  0.82615793  0.34117150    -0.09000
C1769       C  0.85524648  0.84549915  0.28426538     0.65300
H1770       H  0.87251929  0.87008559  0.31846647     0.10700
C1771       C  0.83483175  0.83587177  0.38246666     0.63700
H1772       H  0.81618988  0.81481225  0.34658711     0.08100
F1773       F  0.78386251  0.83357499  0.24407989    -0.19400
F1774       F  0.76056977  0.83376518  0.27453085    -0.15600
F1775       F  0.75720367  0.80676034  0.24835863    -0.19100
F1776       F  0.83833435  0.77758172  0.33800150    -0.22500
F1777       F  0.86471198  0.78886198  0.31227559    -0.24000
F1778       F  0.84848039  0.75452541  0.30938012    -0.17900
F1779       F  0.82281096  0.85476447  0.38968360    -0.20400
F1780       F  0.85314135  0.83219309  0.39662386    -0.21600
F1781       F  0.82060735  0.81721646  0.38529574    -0.18800
F1782       F  0.86091609  0.82437612  0.27541206    -0.18900
F1783       F  0.87327548  0.86015402  0.28011492    -0.22700
F1784       F  0.83647256  0.85388450  0.27283290    -0.24300
C1785       C  0.63112971  0.23492193  0.47964663    -0.11100
C1786       C  0.62241909  0.25710337  0.48185524     0.11500
C1787       C  0.63734006  0.27555796  0.48602771    -0.02900
C1788       C  0.66074137  0.27112491  0.48760968    -0.05600
C1789       C  0.66964641  0.24901845  0.48499760    -0.16400
C1790       C  0.65464184  0.23050534  0.48078944     0.02500
C1791       C  0.59745821  0.26033279  0.48035234     0.12400
C1792       C  0.62861057  0.29979448  0.48900694     0.63100
H1793       H  0.67237379  0.28506268  0.49086810     0.12500
C1794       C  0.66319396  0.20620625  0.47795241     0.55200
H1795       H  0.61924719  0.22107854  0.47681345     0.08300
C1796       C  0.58577681  0.26011889  0.45920149    -0.05500
C1797       C  0.56191840  0.26180930  0.45937635    -0.06300
C1798       C  0.54965994  0.26407554  0.47989090    -0.15900
C1799       C  0.56160362  0.26639866  0.50077634    -0.01500
C1800       C  0.58532337  0.26359292  0.50071045    -0.09000
C1801       C  0.59843360  0.25811069  0.43662266     0.65300
H1802       H  0.55255291  0.26052476  0.44350157     0.10700
C1803       C  0.54977368  0.27318252  0.52280240     0.63700
H1804       H  0.59463350  0.26391748  0.51668079     0.08100
F1805       F  0.67546984  0.20441310  0.45785371    -0.19400
F1806       F  0.64550560  0.19062909  0.47697330    -0.15600
F1807       F  0.67689144  0.20033051  0.49625438    -0.19100
F1808       F  0.61627200  0.30136516  0.50906029    -0.22500
F1809       F  0.61481779  0.30576875  0.47083283    -0.24000
F1810       F  0.64621068  0.31546856  0.49006419    -0.17900
F1811       F  0.53862614  0.25469659  0.53221627    -0.20400
F1812       F  0.53434849  0.29044579  0.51849828    -0.21600
F1813       F  0.56514785  0.28125007  0.53878971    -0.18800
F1814       F  0.58386329  0.25963468  0.41810246    -0.18900
F1815       F  0.60951357  0.23735853  0.43542550    -0.22700
F1816       F  0.61424800  0.27549172  0.43474519    -0.24300
C1817       C  0.76038568  0.07067373  0.46218890    -0.11100
C1818       C  0.76205313  0.08191749  0.48331181     0.11500
C1819       C  0.76437550  0.06885127  0.50354511    -0.02900
C1820       C  0.76635657  0.04496653  0.50179802    -0.05600
C1821       C  0.76558585  0.03362810  0.48065338    -0.16400
C1822       C  0.76179618  0.04663462  0.46046432     0.02500
C1823       C  0.76114457  0.10741284  0.48391335     0.12400
C1824       C  0.76418076  0.08010082  0.52693709     0.63100
H1825       H  0.76814796  0.03486031  0.51714794     0.12500
C1826       C  0.75851232  0.03541516  0.43728663     0.55200
H1827       H  0.75803828  0.08097518  0.44697899     0.08300
C1828       C  0.78089090  0.12100046  0.48106108    -0.05500
C1829       C  0.77915104  0.14490597  0.48355365    -0.06300
C1830       C  0.75819843  0.15564423  0.48780502    -0.15900
C1831       C  0.73829229  0.14202079  0.48994201    -0.01500
C1832       C  0.74018740  0.11807257  0.48805835    -0.09000
C1833       C  0.80357306  0.11022856  0.47492043     0.65300
H1834       H  0.79411684  0.15551786  0.48156757     0.10700
C1835       C  0.71520560  0.15261807  0.49469363     0.63700
H1836       H  0.72526355  0.10736781  0.48985456     0.08100
F1837       F  0.77904317  0.02722025  0.42931092    -0.19400
F1838       F  0.75017059  0.05069862  0.42128479    -0.15600
F1839       F  0.74316520  0.01759545  0.43890171    -0.19100
F1840       F  0.74345260  0.09066226  0.53044665    -0.22500
F1841       F  0.78128800  0.09622591  0.52834358    -0.24000
F1842       F  0.76739160  0.06441814  0.54436804    -0.17900
F1843       F  0.70806628  0.16485640  0.47579359    -0.20400
F1844       F  0.71661712  0.16702658  0.51335297    -0.21600
F1845       F  0.69887186  0.13624112  0.49944001    -0.18800
F1846       F  0.82074221  0.12632882  0.47328106    -0.18900
F1847       F  0.80179036  0.09935007  0.45404045    -0.22700
F1848       F  0.80977175  0.09444280  0.49135988    -0.24300
C1849       C  0.87839090  0.25288763  0.52033554    -0.11100
C1850       C  0.89212914  0.24781055  0.50144733     0.11500
C1851       C  0.88210100  0.24451223  0.47967793    -0.02900
C1852       C  0.85832356  0.24623297  0.47763930    -0.05600
C1853       C  0.84451298  0.25042590  0.49670985    -0.16400
C1854       C  0.85461944  0.25441268  0.51834961     0.02500
C1855       C  0.91681095  0.24442844  0.50533420     0.12400
C1856       C  0.89637473  0.23848785  0.45888381     0.63100
H1857       H  0.85020088  0.24327424  0.46129564     0.12500
C1858       C  0.84044573  0.26044113  0.53920387     0.55200
H1859       H  0.88646573  0.25507764  0.53682422     0.08300
C1860       C  0.93231656  0.26281416  0.50599523    -0.05500
C1861       C  0.95563188  0.25792359  0.50760417    -0.06300
C1862       C  0.96379536  0.23544532  0.50969173    -0.15900
C1863       C  0.94787042  0.21721446  0.51183462    -0.01500
C1864       C  0.92458799  0.22214784  0.50909139    -0.09000
C1865       C  0.92427908  0.28742149  0.50501834     0.65300
H1866       H  0.96780791  0.27176837  0.50679148     0.10700
C1867       C  0.95475140  0.19279945  0.51732138     0.63700
H1868       H  0.91206626  0.20859681  0.50987073     0.08100
F1869       F  0.85390855  0.26687143  0.55751490    -0.19400
F1870       F  0.82763562  0.24180309  0.54587910    -0.15600
F1871       F  0.82612448  0.27846435  0.53409061    -0.19100
F1872       F  0.90701548  0.21773619  0.46233030    -0.22500
F1873       F  0.91268164  0.25509582  0.45520704    -0.24000
F1874       F  0.88327291  0.23678748  0.43929951    -0.17900
F1875       F  0.96169234  0.19149393  0.53984313    -0.20400
F1876       F  0.97212502  0.18560167  0.50324183    -0.21600
F1877       F  0.93680760  0.17772616  0.51458196    -0.18800
F1878       F  0.94226261  0.30264540  0.50600043    -0.18900
F1879       F  0.91013262  0.29180493  0.52338182    -0.22700
F1880       F  0.91251898  0.29134873  0.48495688    -0.24300
C1881       C  0.76969652  0.23215737  0.66384758    -0.11100
C1882       C  0.76589635  0.25240398  0.65168873     0.11500
C1883       C  0.76429987  0.27333268  0.66361776    -0.02900
C1884       C  0.76635432  0.27315346  0.68759141    -0.05600
C1885       C  0.76860415  0.25269512  0.69997085    -0.16400
C1886       C  0.77147732  0.23192062  0.68783866     0.02500
C1887       C  0.76385497  0.25101911  0.62639766     0.12400
C1888       C  0.75952750  0.29558912  0.65117739     0.63100
H1889       H  0.76502482  0.28898485  0.69700095     0.12500
C1890       C  0.77783313  0.20984989  0.69977353     0.55200
H1891       H  0.77114944  0.21641166  0.65427861     0.08300
C1892       C  0.78322715  0.24996202  0.61206035    -0.05500
C1893       C  0.78003896  0.24849656  0.58826919    -0.06300
C1894       C  0.75823763  0.24769298  0.57849205    -0.15900
C1895       C  0.73883672  0.24809275  0.59293944    -0.01500
C1896       C  0.74204431  0.24980680  0.61676384    -0.09000
C1897       C  0.80713984  0.24985810  0.62190122     0.65300
H1898       H  0.79466012  0.24791669  0.57702515     0.10700
C1899       C  0.71493620  0.24593242  0.58338601     0.63700
H1900       H  0.72751196  0.25017362  0.62815670     0.08100
F1901       F  0.78445676  0.19319241  0.68438149    -0.19400
F1902       F  0.75951947  0.20144468  0.71187388    -0.15600
F1903       F  0.79588273  0.21376791  0.71436544    -0.19100
F1904       F  0.73818556  0.29464851  0.64133612    -0.22500
F1905       F  0.77556587  0.29920751  0.63426185    -0.24000
F1906       F  0.76006187  0.31411433  0.66583519    -0.17900
F1907       F  0.69893740  0.24305980  0.60054718    -0.20400
F1908       F  0.71366583  0.22720249  0.56906878    -0.21600
F1909       F  0.70938064  0.26542149  0.57126600    -0.18800
F1910       F  0.82354593  0.25073061  0.60492387    -0.18900
F1911       F  0.81045796  0.23009752  0.63440514    -0.22700
F1912       F  0.81028287  0.26848210  0.63602414    -0.24300
C1913       C  0.78463943  0.98966201  0.62091112    -0.11100
C1914       C  0.76762765  0.99977222  0.60771388     0.11500
C1915       C  0.75000874  0.01219842  0.61848964    -0.02900
C1916       C  0.74918969  0.01266382  0.64254631    -0.05600
C1917       C  0.76567750  0.00155627  0.65597984    -0.16400
C1918       C  0.78465938  0.99110759  0.64484174     0.02500
C1919       C  0.76764139  0.99495826  0.58286030     0.12400
C1920       C  0.73203094  0.02464155  0.60462348     0.63100
H1921       H  0.73516622  0.02115230  0.65098994     0.12500
C1922       C  0.80521851  0.98171118  0.65760094     0.55200
H1923       H  0.79778023  0.98005361  0.61221031     0.08300
C1924       C  0.78327441  0.00520659  0.56750606    -0.05500
C1925       C  0.78257991  0.99878365  0.54436024    -0.06300
C1926       C  0.76658832  0.98298876  0.53629164    -0.15900
C1927       C  0.75133212  0.97244672  0.55172649    -0.01500
C1928       C  0.75242123  0.97834955  0.57493720    -0.09000
C1929       C  0.80027759  0.02306718  0.57538169     0.65300
H1930       H  0.79423558  0.00641456  0.53218941     0.10700
C1931       C  0.73412499  0.95499851  0.54372650     0.63700
H1932       H  0.74119512  0.97019380  0.58717798     0.08100
F1933       F  0.81281872  0.99759590  0.67331920    -0.19400
F1934       F  0.82316944  0.97711367  0.64296129    -0.15600
F1935       F  0.79961900  0.96155339  0.66860482    -0.19100
F1936       F  0.71871795  0.00913453  0.59293103    -0.22500
F1937       F  0.74236571  0.03914020  0.58908896    -0.24000
F1938       F  0.71789970  0.03761000  0.61837893    -0.17900
F1939       F  0.72141509  0.94622160  0.56165342    -0.20400
F1940       F  0.74534002  0.93709566  0.53329937    -0.21600
F1941       F  0.71932757  0.96506773  0.52840868    -0.18800
F1942       F  0.81272640  0.03187932  0.55729080    -0.18900
F1943       F  0.81539468  0.01356605  0.59074624    -0.22700
F1944       F  0.78898531  0.04092500  0.58580546    -0.24300
C1945       C  0.75349050  0.12328785  0.73746011    -0.11100
C1946       C  0.75887317  0.13151930  0.75928380     0.11500
C1947       C  0.76124373  0.11615856  0.77773273    -0.02900
C1948       C  0.76080566  0.09263857  0.77306147    -0.05600
C1949       C  0.75614974  0.08417028  0.75102397    -0.16400
C1950       C  0.75146364  0.09977956  0.73304469     0.02500
C1951       C  0.76014354  0.15653071  0.76230304     0.12400
C1952       C  0.76300683  0.12457442  0.80225573     0.63100
H1953       H  0.76353843  0.08061074  0.78680882     0.12500
C1954       C  0.74466010  0.09188325  0.70929842     0.55200
H1955       H  0.75068688  0.13560632  0.72391520     0.08300
C1956       C  0.78047731  0.16895725  0.75858083    -0.05500
C1957       C  0.77954571  0.19293672  0.75919153    -0.06300
C1958       C  0.75887496  0.20458974  0.76207783    -0.15900
C1959       C  0.73881564  0.19203228  0.76683637    -0.01500
C1960       C  0.73982172  0.16810580  0.76673512    -0.09000
C1961       C  0.80281169  0.15703067  0.75316652     0.65300
H1962       H  0.79484093  0.20284664  0.75639225     0.10700
C1963       C  0.71655461  0.20363291  0.77253066     0.63700
H1964       H  0.72451266  0.15813528  0.76939486     0.08100
F1965       F  0.74208154  0.11000446  0.69429855    -0.19400
F1966       F  0.72406681  0.08049801  0.71037257    -0.15600
F1967       F  0.76114723  0.07751309  0.70053429    -0.19100
F1968       F  0.74363995  0.13675205  0.80779349    -0.22500
F1969       F  0.78168420  0.13860915  0.80488208    -0.24000
F1970       F  0.76500408  0.10669996  0.81763935    -0.17900
F1971       F  0.70749711  0.21334765  0.75307156    -0.20400
F1972       F  0.72024750  0.22015925  0.78892926    -0.21600
F1973       F  0.70070341  0.18840116  0.78118051    -0.18800
F1974       F  0.82008269  0.17248195  0.74866415    -0.18900
F1975       F  0.80028893  0.14330483  0.73414455    -0.22700
F1976       F  0.80948769  0.14367001  0.77142819    -0.24300
C1977       C  0.83406394  0.25953602  0.22013334    -0.11100
C1978       C  0.84633240  0.23929491  0.22286887     0.11500
C1979       C  0.83487695  0.21807082  0.22294883    -0.02900
C1980       C  0.81110318  0.21793437  0.22061261    -0.05600
C1981       C  0.79853690  0.23828696  0.21938511    -0.16400
C1982       C  0.81028521  0.25944309  0.21798128     0.02500
C1983       C  0.87122206  0.24091383  0.22598019     0.12400
C1984       C  0.84766755  0.19576766  0.22614332     0.63100
H1985       H  0.80199264  0.20187827  0.22098670     0.12500
C1986       C  0.79822108  0.28169884  0.21293983     0.55200
H1987       H  0.84333942  0.27552152  0.21997367     0.08300
C1988       C  0.88617699  0.24348861  0.20723478    -0.05500
C1989       C  0.90966231  0.24387204  0.21146459    -0.06300
C1990       C  0.91848861  0.24175468  0.23369780    -0.15900
C1991       C  0.90336730  0.23987543  0.25255899    -0.01500
C1992       C  0.87984113  0.23979369  0.24827691    -0.09000
C1993       C  0.87734440  0.24594661  0.18293973     0.65300
H1994       H  0.92140750  0.24549471  0.19727958     0.10700
C1995       C  0.91179656  0.23820307  0.27705446     0.63700
H1996       H  0.86786778  0.23829343  0.26229394     0.08100
F1997       F  0.81331898  0.29879581  0.20677021    -0.19400
F1998       F  0.78656494  0.28902927  0.23202041    -0.15600
F1999       F  0.78342922  0.27857561  0.19489470    -0.19100
F2000       F  0.85816158  0.19551371  0.24727616    -0.22500
F2001       F  0.86398588  0.19343684  0.20928425    -0.24000
F2002       F  0.83331150  0.17706741  0.22504478    -0.17900
F2003       F  0.89414444  0.23982832  0.29266444    -0.20400
F2004       F  0.92696022  0.25570441  0.28149455    -0.21600
F2005       F  0.92240633  0.21742364  0.28047021    -0.18800
F2006       F  0.89485607  0.24642673  0.16709955    -0.18900
F2007       F  0.86523359  0.26606040  0.18092033    -0.22700
F2008       F  0.86325951  0.22783709  0.17757088    -0.24300
C2009       C  0.66628265  0.16996902  0.14061974    -0.11100
C2010       C  0.67906172  0.15915303  0.15748807     0.11500
C2011       C  0.67773555  0.13523783  0.15940693    -0.02900
C2012       C  0.66316958  0.12315636  0.14454079    -0.05600
C2013       C  0.64907915  0.13364221  0.12771540    -0.16400
C2014       C  0.65328171  0.15798065  0.12417751     0.02500
C2015       C  0.69403949  0.17368129  0.17232337     0.12400
C2016       C  0.69139302  0.12251124  0.17739292     0.63100
H2017       H  0.66239055  0.10493324  0.14638292     0.12500
C2018       C  0.64657631  0.17303341  0.10373511     0.55200
H2019       H  0.66758405  0.18841789  0.13968903     0.08300
C2020       C  0.71504640  0.18253657  0.16453001    -0.05500
C2021       C  0.72741047  0.19751322  0.17878851    -0.06300
C2022       C  0.71970913  0.20440519  0.20072735    -0.15900
C2023       C  0.69735488  0.19689638  0.20735177    -0.01500
C2024       C  0.68565161  0.18100232  0.19346582    -0.09000
C2025       C  0.72414704  0.17672246  0.14086038     0.65300
H2026       H  0.74270181  0.20479944  0.17184749     0.10700
C2027       C  0.68400942  0.20491794  0.22819495     0.63700
H2028       H  0.66902075  0.17492472  0.19876037     0.08100
F2029       F  0.66248116  0.19020935  0.10035854    -0.19400
F2030       F  0.62602448  0.18359874  0.10786847    -0.15600
F2031       F  0.64600851  0.16164674  0.08330771    -0.19100
F2032       F  0.68524064  0.12996507  0.19893377    -0.22500
F2033       F  0.71435054  0.12644390  0.17416537    -0.24000
F2034       F  0.68775691  0.09917176  0.17648132    -0.17900
F2035       F  0.66245440  0.21153394  0.22136243    -0.20400
F2036       F  0.69334611  0.22324159  0.23947338    -0.21600
F2037       F  0.68190941  0.18697944  0.24345507    -0.18800
F2038       F  0.74583894  0.18527082  0.13736196    -0.18900
F2039       F  0.71010605  0.18594437  0.12432353    -0.22700
F2040       F  0.72504715  0.15332773  0.13802620    -0.24300
C2041       C  0.77392392  0.22291941  0.31526011    -0.11100
C2042       C  0.75448053  0.22815142  0.32800091     0.11500
C2043       C  0.73327316  0.23045608  0.31677613    -0.02900
C2044       C  0.73228733  0.22710727  0.29293536    -0.05600
C2045       C  0.75203615  0.22358302  0.27990526    -0.16400
C2046       C  0.77312827  0.22061553  0.29134379     0.02500
C2047       C  0.75705548  0.23152359  0.35306117     0.12400
C2048       C  0.71206538  0.23754448  0.32976883     0.63100
H2049       H  0.71625010  0.22880036  0.28404047     0.12500
C2050       C  0.79479657  0.21494592  0.27864262     0.55200
H2051       H  0.78996178  0.22129688  0.32422056     0.08300
C2052       C  0.75655222  0.21296958  0.36852426    -0.05500
C2053       C  0.75808721  0.21746916  0.39206865    -0.06300
C2054       C  0.76103284  0.23972309  0.40058288    -0.15900
C2055       C  0.76295696  0.25820191  0.38491454    -0.01500
C2056       C  0.76076618  0.25369834  0.36131581    -0.09000
C2057       C  0.75489099  0.18849570  0.36013583     0.65300
H2058       H  0.75718561  0.20345251  0.40413952     0.10700
C2059       C  0.76677357  0.28255562  0.39290208     0.63700
H2060       H  0.76182245  0.26749361  0.34900370     0.08100
F2061       F  0.81146545  0.20675032  0.29321429    -0.19400
F2062       F  0.80308863  0.23437625  0.26820706    -0.15600
F2063       F  0.79053607  0.19825005  0.26255384    -0.19100
F2064       F  0.71547044  0.25872034  0.33958708    -0.22500
F2065       F  0.70727129  0.22185745  0.34677252    -0.24000
F2066       F  0.69329330  0.23906372  0.31558098    -0.17900
F2067       F  0.78790687  0.28431527  0.40310626    -0.20400
F2068       F  0.75009701  0.28867311  0.40842114    -0.21600
F2069       F  0.76608416  0.29796593  0.37493147    -0.18800
F2070       F  0.75354146  0.17309065  0.37806775    -0.18900
F2071       F  0.77397535  0.18324896  0.34736425    -0.22700
F2072       F  0.73578151  0.18572670  0.34669317    -0.24300
C2073       C  0.79357571  0.61413049  0.24432985    -0.11100
C2074       C  0.77432679  0.62795757  0.24182101     0.11500
C2075       C  0.75287148  0.61790648  0.23742892    -0.02900
C2076       C  0.75129092  0.59397057  0.23642728    -0.05600
C2077       C  0.77057727  0.58006506  0.23868685    -0.16400
C2078       C  0.79214759  0.59021319  0.24279416     0.02500
C2079       C  0.77729148  0.65305775  0.24280334     0.12400
C2080       C  0.73191701  0.63246885  0.23319138     0.63100
H2081       H  0.73502791  0.58589856  0.23321668     0.12500
C2082       C  0.81351031  0.57595978  0.24602153     0.55200
H2083       H  0.80982357  0.62233809  0.24726165     0.08300
C2084       C  0.77701096  0.66522350  0.26366049    -0.05500
C2085       C  0.77781754  0.68923094  0.26288789    -0.06300
C2086       C  0.77866641  0.70116977  0.24200840    -0.15900
C2087       C  0.78143370  0.68875192  0.22142429    -0.01500
C2088       C  0.78045876  0.66480156  0.22218933    -0.09000
C2089       C  0.77570511  0.65286130  0.28648916     0.65300
H2090       H  0.77702617  0.69892247  0.27860754     0.10700
C2091       C  0.78644307  0.70048627  0.19890722     0.63700
H2092       H  0.78162553  0.65499103  0.20654445     0.08100
F2093       F  0.83180773  0.58912325  0.25295774    -0.19400
F2094       F  0.81934672  0.56560162  0.22562514    -0.15600
F2095       F  0.80982034  0.55941871  0.26253420    -0.19100
F2096       F  0.73495148  0.64526684  0.21353760    -0.22500
F2097       F  0.72830060  0.64700865  0.25140231    -0.24000
F2098       F  0.71256406  0.61929299  0.23044195    -0.17900
F2099       F  0.79446759  0.68527636  0.18271431    -0.20400
F2100       F  0.80299289  0.71692832  0.20209768    -0.21600
F2101       F  0.76690572  0.71036925  0.19042524    -0.18800
F2102       F  0.77522891  0.66793545  0.30468213    -0.18900
F2103       F  0.79450394  0.63893211  0.28905716    -0.22700
F2104       F  0.75626860  0.63961081  0.28750920    -0.24300
C2105       C  0.63936882  0.46863586  0.24557001    -0.11100
C2106       C  0.62716811  0.48891134  0.24889974     0.11500
C2107       C  0.63880160  0.51008378  0.24820583    -0.02900
C2108       C  0.66247118  0.51016102  0.24440511    -0.05600
C2109       C  0.67472364  0.48993251  0.24054144    -0.16400
C2110       C  0.66293171  0.46868799  0.24099887     0.02500
C2111       C  0.60199041  0.48743888  0.25179735     0.12400
C2112       C  0.62617292  0.53253261  0.25088244     0.63100
H2113       H  0.67163086  0.52620263  0.24410425     0.12500
C2114       C  0.67498181  0.44607989  0.23702044     0.55200
H2115       H  0.63006192  0.45268870  0.24617309     0.08300
C2116       C  0.58744213  0.48364080  0.23297562    -0.05500
C2117       C  0.56386753  0.48227477  0.23679931    -0.06300
C2118       C  0.55416503  0.48456493  0.25869383    -0.15900
C2119       C  0.56881317  0.48944378  0.27745361    -0.01500
C2120       C  0.59255062  0.49012176  0.27367253    -0.09000
C2121       C  0.59676949  0.48034946  0.20895773     0.65300
H2122       H  0.55280278  0.47899420  0.22246828     0.10700
C2123       C  0.55997071  0.49504373  0.30119017     0.63700
H2124       H  0.60401464  0.49296947  0.28787251     0.08100
F2125       F  0.68270188  0.44503446  0.21470477    -0.19400
F2126       F  0.66066942  0.42761899  0.24055732    -0.15600
F2127       F  0.69315547  0.44392671  0.25186519    -0.19100
F2128       F  0.61619084  0.53362341  0.27224738    -0.22500
F2129       F  0.60948335  0.53428879  0.23433723    -0.24000
F2130       F  0.64055217  0.55112635  0.24860078    -0.17900
F2131       F  0.55500307  0.47516764  0.31290073    -0.20400
F2132       F  0.54075716  0.50848492  0.29986340    -0.21600
F2133       F  0.57595290  0.50705229  0.31372210    -0.18800
F2134       F  0.57975659  0.48148874  0.19268947    -0.18900
F2135       F  0.60703007  0.45918719  0.20742606    -0.22700
F2136       F  0.61255556  0.49708098  0.20375173    -0.24300
C2137       C  0.73686064  0.32002642  0.25241093    -0.11100
C2138       C  0.74263280  0.33199329  0.23252684     0.11500
C2139       C  0.74432735  0.32023517  0.21148619    -0.02900
C2140       C  0.74036990  0.29650987  0.21120033    -0.05600
C2141       C  0.73675513  0.28415194  0.23148948    -0.16400
C2142       C  0.73376435  0.29624236  0.25227203     0.02500
C2143       C  0.74702165  0.35685852  0.23440026     0.12400
C2144       C  0.75174552  0.33247222  0.18981007     0.63100
H2145       H  0.74191993  0.28713890  0.19534486     0.12500
C2146       C  0.72707231  0.28435483  0.27422920     0.55200
H2147       H  0.73545290  0.32945216  0.26826942     0.08300
C2148       C  0.72912543  0.37292698  0.23383515    -0.05500
C2149       C  0.73455444  0.39623117  0.23483568    -0.06300
C2150       C  0.75710059  0.40391015  0.23717131    -0.15900
C2151       C  0.77497456  0.38772883  0.23875861    -0.01500
C2152       C  0.76953823  0.36432926  0.23722833    -0.09000
C2153       C  0.70439508  0.36546898  0.23254229     0.65300
H2154       H  0.72104912  0.40877050  0.23408124     0.10700
C2155       C  0.79961753  0.39501340  0.24140196     0.63700
H2156       H  0.78283820  0.35157616  0.23814564     0.08100
F2157       F  0.71898498  0.29963159  0.29034079    -0.19400
F2158       F  0.74577797  0.27351972  0.28337881    -0.15600
F2159       F  0.70998372  0.26873403  0.26992172    -0.19100
F2160       F  0.77383492  0.34017023  0.19234850    -0.42500
F2161       F  0.73772414  0.35090979  0.18552084    -0.24000
F2162       F  0.75104813  0.31823930  0.17096403    -0.17900
F2163       F  0.80262013  0.40551596  0.26233301    -0.20400
F2164       F  0.80546946  0.41003423  0.22408378    -0.21600
F2165       F  0.81432311  0.37659244  0.24038146    -0.18800
F2166       F  0.68976857  0.38392224  0.23104921    -0.18900
F2167       F  0.69878624  0.35320515  0.25196088    -0.22700
F2168       F  0.70094693  0.35190459  0.21355664    -0.24300
C2169       C  0.88956934  0.49093415  0.21988622    -0.11100
C2170       C  0.90031676  0.49395086  0.24098337     0.11500
C2171       C  0.88705476  0.49560079  0.26115631    -0.02900
C2172       C  0.86322475  0.49330923  0.25946195    -0.05600
C2173       C  0.85242272  0.49035612  0.23825482    -0.16400
C2174       C  0.86583725  0.48905325  0.21810305     0.02500
C2175       C  0.92555036  0.49555895  0.24086701     0.12400
C2176       C  0.89794049  0.50028191  0.28419804     0.63100
H2177       H  0.85272995  0.49461027  0.27463656     0.12500
C2178       C  0.85529782  0.48523355  0.19481544     0.55200
H2179       H  0.90008873  0.49016904  0.20468527     0.08300
C2180       C  0.93942303  0.47601853  0.23833285    -0.05500
C2181       C  0.96298154  0.47896957  0.23526720    -0.06300
C2182       C  0.97314813  0.50070181  0.23498865    -0.15900
C2183       C  0.95925966  0.52022952  0.23900126    -0.01500
C2184       C  0.93556708  0.51723560  0.24117229    -0.09000
C2185       C  0.92929887  0.45215257  0.23859454     0.65300
H2186       H  0.97367354  0.46416067  0.23273225     0.10700
C2187       C  0.96903371  0.54401072  0.24217687     0.63700
H2188       H  0.92451914  0.53191256  0.24294097     0.08100
F2189       F  0.87153606  0.48126976  0.17812088    -0.19400
F2190       F  0.84314391  0.50438210  0.18847388    -0.15600
F2191       F  0.84107264  0.46643598  0.19569439    -0.19100
F2192       F  0.90818465  0.52152144  0.28388864    -0.22500
F2193       F  0.91416279  0.48390309  0.28897261    -0.24000
F2194       F  0.88207750  0.50007453  0.30171792    -0.17900
F2195       F  0.97698963  0.55243163  0.22161969    -0.20400
F2196       F  0.98644453  0.54336740  0.25798178    -0.21600
F2197       F  0.95286570  0.55917957  0.25024974    -0.18800
F2198       F  0.94598077  0.43548712  0.23869912    -0.18900
F2199       F  0.91593319  0.44898783  0.21944410    -0.22700
F2200       F  0.91606930  0.44917546  0.25793161    -0.24300
C2201       C  0.84196241  0.51407257  0.48361412    -0.11100
C2202       C  0.85198530  0.50703283  0.50414429     0.11500
C2203       C  0.83836796  0.50480470  0.52402783    -0.02900
C2204       C  0.81469176  0.50792881  0.52209449    -0.05600
C2205       C  0.80439272  0.51286172  0.50100146    -0.16400
C2206       C  0.81836393  0.51724482  0.48166187     0.02500
C2207       C  0.87693372  0.50285630  0.50405743     0.12400
C2208       C  0.84863378  0.49846277  0.54697063     0.63100
H2209       H  0.80384953  0.50528716  0.53684618     0.12500
C2210       C  0.80888551  0.52613476  0.45924590     0.55200
H2211       H  0.85284381  0.51666099  0.46886525     0.08300
C2212       C  0.88648057  0.48268101  0.49473937    -0.05500
C2213       C  0.91033643  0.48086030  0.49312621    -0.06300
C2214       C  0.92465543  0.49864670  0.50017400    -0.15900
C2215       C  0.91512091  0.51838340  0.51038288    -0.01500
C2216       C  0.89130426  0.52030539  0.51176462    -0.09000
C2217       C  0.87151781  0.46345310  0.48597419     0.65300
H2218       H  0.91800408  0.46581928  0.48563524     0.10700
C2219       C  0.93004905  0.53704150  0.52032521     0.63700
H2220       H  0.88364069  0.53566616  0.51857379     0.08100
F2221       F  0.82564728  0.53637985  0.44610393    -0.19400
F2222       F  0.79242826  0.54237487  0.46343143    -0.15600
F2223       F  0.79973216  0.50844271  0.44671770    -0.19100
F2224       F  0.86459421  0.51456017  0.55331654    -0.22500
F2225       F  0.85899194  0.47735151  0.54549552    -0.24000
F2226       F  0.83232092  0.49741515  0.56404160    -0.17900
F2227       F  0.94208531  0.54776981  0.50306969    -0.20400
F2228       F  0.94514154  0.52762090  0.53582625    -0.21600
F2229       F  0.91736526  0.55340813  0.53167418    -0.18800
F2230       F  0.88418773  0.44451652  0.47983214    -0.18900
F2231       F  0.85960450  0.47071213  0.46694770    -0.22700
F2232       F  0.85626217  0.45681701  0.50272145    -0.24300
C2233       C  0.77576211  0.50090714  0.36239859    -0.11100
C2234       C  0.75394452  0.49903227  0.37192429     0.11500
C2235       C  0.73500904  0.49459565  0.35772675    -0.02900
C2236       C  0.73865739  0.49212858  0.33413371    -0.05600
C2237       C  0.76050483  0.49377069  0.32456127    -0.16400
C2238       C  0.77947237  0.49809193  0.33881564     0.02500
C2239       C  0.75149698  0.50173053  0.39694219     0.12400
C2240       C  0.71107142  0.49287577  0.36742217     0.63100
H2241       H  0.72437987  0.48908510  0.32284584     0.12500
C2242       C  0.80335184  0.50025863  0.32915179     0.55200
H2243       H  0.78989532  0.50447692  0.37370902     0.08300
C2244       C  0.75521797  0.48336171  0.41202651    -0.05500
C2245       C  0.75199633  0.48695820  0.43545427    -0.06300
C2246       C  0.74733627  0.50868740  0.44468340    -0.15900
C2247       C  0.74377155  0.52730595  0.42926507    -0.01500
C2248       C  0.74569274  0.52321289  0.40557762    -0.09000
C2249       C  0.76365852  0.46034122  0.40353490     0.65300
H2250       H  0.75411339  0.47264093  0.44683983     0.10700
C2251       C  0.73799683  0.55139812  0.43690497     0.63700
H2252       H  0.74285814  0.53687726  0.39341052     0.08100
F2253       F  0.81014330  0.47954657  0.32015822    -0.19400
F2254       F  0.81892023  0.50649981  0.34575527    -0.15600
F2255       F  0.80378380  0.51668915  0.31213602    -0.19100
F2256       F  0.70476679  0.51363094  0.37665238    -0.22500
F2257       F  0.71019205  0.47636713  0.38431756    -0.24000
F2258       F  0.69535298  0.48710967  0.35079162    -0.17900
F2259       F  0.74053819  0.56704207  0.41929378    -0.20400
F2260       F  0.75214667  0.55825299  0.45433200    -0.21600
F2261       F  0.71561692  0.55229061  0.44404960    -0.18800
F2262       F  0.76540051  0.44452596  0.42106907    -0.18900
F2263       F  0.78499100  0.46292263  0.39389884    -0.22700
F2264       F  0.74899465  0.45163303  0.38729865    -0.24300
C2265       C  0.71322192  0.56915774  0.54572031    -0.11100
C2266       C  0.69434348  0.55861613  0.55566787     0.11500
C2267       C  0.68880082  0.53606072  0.54938613    -0.02900
C2268       C  0.70341606  0.52424931  0.53435285    -0.05600
C2269       C  0.72346708  0.53416060  0.52519270    -0.16400
C2270       C  0.72726590  0.55796281  0.52977854     0.02500
C2271       C  0.67964291  0.57260347  0.57096306     0.12400
C2272       C  0.66725876  0.52472327  0.55824764     0.63100
H2273       H  0.69850567  0.50733617  0.52913790     0.12500
C2274       C  0.74555994  0.57289988  0.51891039     0.55200
H2275       H  0.71663042  0.58681763  0.55010180     0.08300
C2276       C  0.68421233  0.57528122  0.59439456    -0.05500
C2277       C  0.66921745  0.58859514  0.60760827    -0.06300
C2278       C  0.65023531  0.60057606  0.59840838    -0.15900
C2279       C  0.65013103  0.60221439  0.57363811    -0.01500
C2280       C  0.66276806  0.58604919  0.56098964    -0.09000
C2281       C  0.70485970  0.56417033  0.60539642     0.65300
H2282       H  0.67238178  0.58944941  0.62564506     0.10700
C2283       C  0.64049983  0.62124621  0.55860352     0.63700
H2284       H  0.66101169  0.58539276  0.54253028     0.08100
F2285       F  0.76347077  0.57533468  0.53401866    -0.19400
F2286       F  0.73686085  0.59437705  0.51426110    -0.15600
F2287       F  0.75356225  0.56454134  0.49848454    -0.19100
F2288       F  0.64847200  0.53695102  0.55105181    -0.22500
F2289       F  0.66747231  0.52407770  0.58185799    -0.24000
F2290       F  0.66504684  0.50254408  0.55043534    -0.17900
F2291       F  0.65601435  0.62671506  0.54157553    -0.20400
F2292       F  0.63659273  0.64135796  0.56983940    -0.21600
F2293       F  0.62087032  0.61382864  0.54804304    -0.18800
F2294       F  0.70635616  0.56907354  0.62849245    -0.18900
F2295       F  0.72446800  0.57207391  0.59498084    -0.22700
F2296       F  0.70378500  0.54074311  0.60299749    -0.24300
C2297       C  0.73245638  0.37012855  0.49640712    -0.11100
C2298       C  0.74973875  0.38286589  0.48607004     0.11500
C2299       C  0.76759205  0.37148522  0.47452342    -0.02900
C2300       C  0.76803231  0.34741166  0.47471841    -0.05600
C2301       C  0.75109771  0.33441522  0.48581929    -0.16400
C2302       C  0.73230671  0.34612385  0.49595960     0.02500
C2303       C  0.74941474  0.40805729  0.48916776     0.12400
C2304       C  0.78619193  0.38475360  0.46225548     0.63100
H2305       H  0.78205569  0.33859477  0.46662445     0.12500
C2306       C  0.71175779  0.33381826  0.50593166     0.55200
H2307       H  0.71913172  0.37930059  0.50528741     0.08300
C2308       C  0.73456254  0.42257785  0.47679738    -0.05500
C2309       C  0.73539630  0.44624252  0.48100231    -0.06300
C2310       C  0.75055534  0.45558899  0.49696827    -0.15900
C2311       C  0.76480567  0.44098611  0.50979021    -0.01500
C2312       C  0.76380289  0.41735259  0.50582749    -0.09000
C2313       C  0.71782558  0.41314284  0.45944826     0.65300
H2314       H  0.72423943  0.45771864  0.47178159     0.10700
C2315       C  0.78144885  0.45040458  0.52707094     0.63700
H2316       H  0.77458059  0.40585630  0.51547593     0.08100
F2317       F  0.70349217  0.31823954  0.49025707    -0.19400
F2318       F  0.69422232  0.34875183  0.51102610    -0.15600
F2319       F  0.71768894  0.32276292  0.52596249    -0.19100
F2320       F  0.79908365  0.39674279  0.47790812    -0.22500
F2321       F  0.77661099  0.39994266  0.44692526    -0.24000
F2322       F  0.80061098  0.37049694  0.45018335    -0.17900
F2323       F  0.79232347  0.43324836  0.53913678    -0.20400
F2324       F  0.77020938  0.46417778  0.54258122    -0.21600
F2325       F  0.79777353  0.46297141  0.51571540    -0.18800
F2326       F  0.70679945  0.43038753  0.44763489    -0.18900
F2327       F  0.70153556  0.40015006  0.47049706    -0.22700
F2328       F  0.72905385  0.39966915  0.44368595    -0.24300
C2329       C  0.52238529  0.66170878  0.98493722    -0.11100
C2330       C  0.50276040  0.65131377  0.99360765     0.11500
C2331       C  0.48379488  0.66489393  0.99966506    -0.02900
C2332       C  0.48515285  0.68873722  0.99649098    -0.05600
C2333       C  0.50491476  0.69918572  0.98786643    -0.16400
C2334       C  0.52368573  0.68539593  0.98153917     0.02500
C2335       C  0.50303590  0.62608133  0.99603763     0.12400
C2336       C  0.46263354  0.65434534  0.01016789     0.63100
H2337       H  0.47098156  0.69952912  0.00128205     0.12500
C2338       C  0.54481030  0.69541504  0.97069765     0.55200
H2339       H  0.53672101  0.65091898  0.98064028     0.08300
C2340       C  0.49935413  0.61154251  0.97706570    -0.05500
C2341       C  0.50200733  0.58788813  0.98006575    -0.06300
C2342       C  0.50845292  0.57845345  0.00115135    -0.15900
C2343       C  0.51273486  0.59300847  0.01996879    -0.01500
C2344       C  0.50979292  0.61672287  0.01708253    -0.09000
C2345       C  0.49272003  0.62091329  0.95372609     0.65300
H2346       H  0.49900336  0.57643399  0.96586613     0.10700
C2347       C  0.52148168  0.58365269  0.04252183     0.63700
H2348       H  0.51323531  0.62826509  0.03110518     0.08100
F2349       F  0.55940882  0.67869791  0.96268207    -0.19400
F2350       F  0.55641378  0.70811156  0.98672007    -0.15600
F2351       F  0.53870222  0.70897895  0.95234789    -0.19100
F2352       F  0.46785339  0.64563052  0.03149930    -0.22500
F2353       F  0.45454535  0.63688874  0.99655847    -0.24000
F2354       F  0.44538143  0.67021967  0.01268241    -0.17900
F2355       F  0.52723559  0.60093318  0.05756225    -0.20400
F2356       F  0.54070291  0.57057126  0.03871872    -0.21600
F2357       F  0.50495104  0.57031133  0.05276143    -0.18800
F2358       F  0.49045922  0.60374243  0.93765433    -0.18900
F2359       F  0.50912350  0.63590125  0.94586680    -0.22700
F2360       F  0.47218085  0.63224156  0.95522426    -0.24300
C2361       C  0.50859540  0.96672625  0.65887761    -0.11100
C2362       C  0.50857124  0.98884976  0.64976047     0.11500
C2363       C  0.50683993  0.00779374  0.66455281    -0.02900
C2364       C  0.50434048  0.00378882  0.68809837    -0.05600
C2365       C  0.50406615  0.98163347  0.69748271    -0.16400
C2366       C  0.50748250  0.96270998  0.68259577     0.02500
C2367       C  0.50877369  0.99157516  0.62453576     0.12400
C2368       C  0.50749951  0.03214803  0.65551012     0.63100
H2369       H  0.50218656  0.01820673  0.69934198     0.12500
C2370       C  0.51073502  0.93829904  0.69074858     0.55200
H2371       H  0.50971779  0.95242289  0.64720069     0.08300
C2372       C  0.52888956  0.98974347  0.61132681    -0.05500
C2373       C  0.52738221  0.99249235  0.58744145    -0.06300
C2374       C  0.50642256  0.99624724  0.57656511    -0.15900
C2375       C  0.48632472  0.99815429  0.58988727    -0.01500
C2376       C  0.48792005  0.99561219  0.61371664    -0.09000
C2377       C  0.55166795  0.98436841  0.62232961     0.65300
H2378       H  0.54248033  0.99087328  0.57693893     0.10700
C2379       C  0.46338720  0.00358090  0.57920212     0.63700
H2380       H  0.47278010  0.99664871  0.62423860     0.08100
F2381       F  0.52486695  0.92649931  0.67594797    -0.19400
F2382       F  0.48994711  0.92728844  0.69140918    -0.15600
F2383       F  0.52077109  0.93744397  0.71205494    -0.19100
F2384       F  0.48895284  0.03615274  0.64158980    -0.22500
F2385       F  0.52720134  0.03562477  0.64307448    -0.24000
F2386       F  0.50707765  0.04802345  0.67299968    -0.17900
F2387       F  0.45605663  0.98548024  0.56600240    -0.20400
F2388       F  0.46522802  0.02291054  0.56569902    -0.21600
F2389       F  0.44689833  0.00766353  0.59561380    -0.18800
F2390       F  0.56918886  0.98442519  0.60649065    -0.18900
F2391       F  0.55089345  0.96299289  0.63233946    -0.22700
F2392       F  0.55668276  0.00038828  0.63888685    -0.24300
C2393       C  0.58700446  0.00066864  0.76154910    -0.11100
C2394       C  0.59800644  0.98365875  0.74904746     0.11500
C2395       C  0.58558608  0.96449194  0.74128618    -0.02900
C2396       C  0.56181416  0.96426647  0.74439866    -0.05600
C2397       C  0.55051544  0.98218919  0.75557026    -0.16400
C2398       C  0.56347209  0.00010659  0.76523212     0.02500
C2399       C  0.62296454  0.98568655  0.74653323     0.12400
C2400       C  0.59743465  0.94438200  0.73010273     0.63100
H2401       H  0.55183924  0.95020729  0.73791885     0.12500
C2402       C  0.55266886  0.01889986  0.77897995     0.55200
H2403       H  0.59708258  0.01465922  0.76819073     0.08300
C2404       C  0.63325510  0.99866525  0.72894053    -0.05500
C2405       C  0.65715786  0.00063668  0.72859721    -0.06300
C2406       C  0.67082977  0.99105176  0.74592485    -0.15900
C2407       C  0.65994514  0.97944615  0.76454956    -0.01500
C2408       C  0.63625100  0.97666182  0.76406722    -0.09000
C2409       C  0.61893440  0.01084949  0.71107466     0.65300
H2410       H  0.66529007  0.00993656  0.71482514     0.10700
C2411       C  0.67264529  0.97039683  0.78538787     0.63700
H2412       H  0.62761676  0.96764906  0.77774854     0.08100
F2413       F  0.54235116  0.03389911  0.76407980    -0.19400
F2414       F  0.56855809  0.03089697  0.79164364    -0.15600
F2415       F  0.53699652  0.00977497  0.79410269    -0.19100
F2416       F  0.61328345  0.93526498  0.74498093    -0.22500
F2417       F  0.60838508  0.95138157  0.71039331    -0.24000
F2418       F  0.58224116  0.92726403  0.72437270    -0.17900
F2419       F  0.65799959  0.96298217  0.80241620    -0.20400
F2420       F  0.68600425  0.98746360  0.79470589    -0.21600
F2421       F  0.68601323  0.95202047  0.77921748    -0.18800
F2422       F  0.63223610  0.02268599  0.69551597    -0.18900
F2423       F  0.60464140  0.02633484  0.72162656    -0.22700
F2424       F  0.60592770  0.99526086  0.69914805    -0.24300
C2425       C  0.37398048  0.90634595  0.91229613    -0.11100
C2426       C  0.35051919  0.90320432  0.91289363     0.11500
C2427       C  0.34076531  0.88596954  0.89944621    -0.02900
C2428       C  0.35502893  0.87213591  0.88604594    -0.05600
C2429       C  0.37894413  0.87573793  0.88338491    -0.16400
C2430       C  0.38875128  0.89270145  0.89883163     0.02500
C2431       C  0.33645615  0.91812143  0.92804839     0.12400
C2432       C  0.31511298  0.88234830  0.89902775     0.63100
H2433       H  0.34689750  0.85773418  0.87822269     0.12500
C2434       C  0.41422216  0.89698285  0.90288192     0.55200
H2435       H  0.38058372  0.91977188  0.92309888     0.08300
C2436       C  0.33265596  0.91306704  0.95131558    -0.05500
C2437       C  0.31730578  0.92672738  0.96384907    -0.06300
C2438       C  0.30607012  0.94605280  0.95441270    -0.15900
C2439       C  0.31028534  0.95077900  0.93059778    -0.01500
C2440       C  0.32605680  0.93725583  0.91845941    -0.09000
C2441       C  0.34489838  0.89327341  0.96288123     0.65300
H2442       H  0.31358742  0.92130673  0.98097434     0.10700
C2443       C  0.29950197  0.96977929  0.91652056     0.63700
H2444       H  0.32976639  0.94113814  0.90069766     0.08100
F2445       F  0.41806578  0.91332414  0.91952939    -0.19400
F2446       F  0.42464167  0.90505622  0.88352112    -0.15600
F2447       F  0.42499625  0.87761951  0.91061168    -0.19100
F2448       F  0.30456410  0.90186998  0.89104054    -0.22500
F2449       F  0.30716821  0.87757838  0.92075654    -0.24000
F2450       F  0.30885029  0.86449660  0.88489012    -0.17900
F2451       F  0.31482593  0.98759602  0.91459906    -0.20400
F2452       F  0.27939041  0.97779551  0.92534623    -0.21600
F2453       F  0.29456774  0.96193451  0.89475176    -0.18800
F2454       F  0.33937796  0.89149820  0.98583221    -0.18900
F2455       F  0.36815732  0.89640173  0.96131776    -0.22700
F2456       F  0.33923220  0.87292206  0.95243017    -0.24300
C2457       C  0.44489297  0.82587523  0.89377754    -0.11100
C2458       C  0.43396773  0.81610945  0.91251871     0.11500
C2459       C  0.41146226  0.82235932  0.91744379    -0.02900
C2460       C  0.39991818  0.83649787  0.90185853    -0.05600
C2461       C  0.40998566  0.84583352  0.88165600    -0.16400
C2462       C  0.43449037  0.84236803  0.87959993     0.02500
C2463       C  0.44784174  0.80178880  0.92816764     0.12400
C2464       C  0.39948661  0.81369387  0.93883133     0.63100
H2465       H  0.38221416  0.83981340  0.90534788     0.12500
C2466       C  0.45204349  0.85592565  0.86575360     0.55200
H2467       H  0.46267694  0.82158395  0.89126729     0.08300
C2468       C  0.45298279  0.77877710  0.92348862    -0.05500
C2469       C  0.46778975  0.76698960  0.93829944    -0.06300
C2470       C  0.47797313  0.77740057  0.95761609    -0.15900
C2471       C  0.47422194  0.80146093  0.96061363    -0.01500
C2472       C  0.45842308  0.81264677  0.94648294    -0.09000
C2473       C  0.44305240  0.76684557  0.90270584     0.65300
H2474       H  0.47210170  0.74974535  0.93385456     0.10700
C2475       C  0.48610918  0.81701530  0.97768568     0.63700
H2476       H  0.45500324  0.83065826  0.94909883     0.08100
F2477       F  0.47190897  0.85855481  0.87825148    -0.19400
F2478       F  0.44547239  0.87766443  0.86072599    -0.15600
F2479       F  0.45766588  0.84437573  0.84599005    -0.19100
F2480       F  0.41055755  0.82167570  0.95805548    -0.22500
F2481       F  0.39957920  0.79010489  0.93916544    -0.24000
F2482       F  0.37709075  0.82090768  0.93994790    -0.17900
F2483       F  0.49287995  0.83691055  0.96678137    -0.20400
F2484       F  0.50533986  0.80783271  0.98721666    -0.21600
F2485       F  0.47104878  0.82267683  0.99492960    -0.18800
F2486       F  0.44933922  0.74410367  0.90168354    -0.18900
F2487       F  0.45059369  0.77741428  0.88295094    -0.22700
F2488       F  0.41957934  0.76780788  0.90344366    -0.24300
C2489       C  0.42952324  0.87969153  0.81231826    -0.11100
C2490       C  0.42899638  0.90334306  0.81493625     0.11500
C2491       C  0.41340573  0.91284241  0.83055104    -0.02900
C2492       C  0.40107671  0.89815831  0.84514399    -0.05600
C2493       C  0.40447688  0.87410630  0.84588770    -0.16400
C2494       C  0.41679253  0.86476596  0.82652205     0.02500
C2495       C  0.44423588  0.91780983  0.80035671     0.12400
C2496       C  0.40978537  0.93850832  0.83176311     0.63100
H2497       H  0.38882683  0.90599489  0.85629226     0.12500
C2498       C  0.41574378  0.83993709  0.81879897     0.55200
H2499       H  0.43994845  0.87307076  0.79858311     0.08300
C2500       C  0.46705924  0.92215673  0.80630941    -0.05500
C2501       C  0.47988626  0.93745527  0.79289559    -0.06300
C2502       C  0.47141216  0.94792980  0.77274773    -0.15900
C2503       C  0.44810475  0.94308608  0.76681012    -0.01500
C2504       C  0.43541272  0.92775184  0.78054309    -0.09000
C2505       C  0.47782503  0.91078843  0.82701233     0.65300
H2506       H  0.49641690  0.94190818  0.79922370     0.10700
C2507       C  0.43580985  0.95286066  0.74603153     0.63700
H2508       H  0.41809621  0.92340079  0.77597696     0.08100
F2509       F  0.43226938  0.83490400  0.80268512    -0.19400
F2510       F  0.39498890  0.83579858  0.80869756    -0.15600
F2511       F  0.41896778  0.82511392  0.83664128    -0.19100
F2512       F  0.40101877  0.94626927  0.81125532    -0.22500
F2513       F  0.43022640  0.94939751  0.83596068    -0.24000
F2514       F  0.39473449  0.94452653  0.84894076    -0.17900
F2515       F  0.44120142  0.94027412  0.72683570    -0.20400
F2516       F  0.44109472  0.97545991  0.74245722    -0.21600
F2517       F  0.41241979  0.95186735  0.74876231    -0.18800
F2518       F  0.50033484  0.91711424  0.82988313    -0.18900
F2519       F  0.47724608  0.88735012  0.82439521    -0.22700
F2520       F  0.46605103  0.91677555  0.84655765    -0.24300
C2521       C  0.63190264  0.75105957  0.27219449    -0.11100
C2522       C  0.64492682  0.74591778  0.25283549     0.11500
C2523       C  0.63407444  0.73872524  0.23247067    -0.02900
C2524       C  0.61017743  0.73717909  0.23217010    -0.05600
C2525       C  0.59710112  0.74236183  0.25157598    -0.16400
C2526       C  0.60803578  0.74989236  0.27181848     0.02500
C2527       C  0.67001438  0.74781760  0.25452731     0.12400
C2528       C  0.64772735  0.73271479  0.21123539     0.63100
H2529       H  0.60148499  0.73168288  0.21681766     0.12500
C2530       C  0.59460934  0.75763560  0.29261278     0.55200
H2531       H  0.64067339  0.75618146  0.28763342     0.08300
C2532       C  0.68145965  0.76899793  0.25271769    -0.05500
C2533       C  0.70538333  0.76909317  0.25267247    -0.06300
C2534       C  0.71797622  0.74879216  0.25432239    -0.15900
C2535       C  0.70637932  0.72790339  0.25830121    -0.01500
C2536       C  0.68248265  0.72782240  0.25821580    -0.09000
C2537       C  0.66845958  0.79128828  0.25056732     0.65300
H2538       H  0.71449639  0.78503247  0.25066361     0.10700
C2539       C  0.71889458  0.70593353  0.26349273     0.63700
H2540       H  0.67324282  0.71197659  0.26053259     0.08100
F2541       F  0.60846429  0.76774863  0.30882601    -0.19400
F2542       F  0.58398603  0.73912940  0.30271271    -0.15600
F2543       F  0.57842286  0.77351363  0.28612973    -0.19100
F2544       F  0.66145801  0.71407702  0.21563671    -0.22500
F2545       F  0.66120994  0.75100404  0.20486895    -0.24000
F2546       F  0.63380900  0.72730040  0.19295576    -0.17900
F2547       F  0.70443287  0.68929332  0.27201769    -0.20400
F2548       F  0.73535782  0.70996588  0.27982288    -0.21600
F2549       F  0.72874970  0.69755797  0.24381422    -0.18800
F2550       F  0.68292220  0.80982338  0.24837917    -0.18900
F2551       F  0.65526247  0.79465332  0.26983737    -0.22700
F2552       F  0.65454024  0.79066880  0.23154787    -0.24300
C2553       C  0.48875460  0.61827514  0.26571199    -0.11100
C2554       C  0.50617543  0.60533643  0.25588207     0.11500
C2555       C  0.52460044  0.61629108  0.24473371    -0.02900
C2556       C  0.52525345  0.64029837  0.24448756    -0.05600
C2557       C  0.50763031  0.65319614  0.25414625    -0.16400
C2558       C  0.48909551  0.64216781  0.26496211     0.02500
C2559       C  0.50351602  0.58029037  0.25610468     0.12400
C2560       C  0.54298117  0.60268693  0.23259945     0.63100
H2561       H  0.53910253  0.64919994  0.23609555     0.12500
C2562       C  0.46988327  0.65560826  0.27583129     0.55200
H2563       H  0.47461406  0.60938939  0.27362343     0.08300
C2564       C  0.50869617  0.56691537  0.27554643    -0.05500
C2565       C  0.50512016  0.54324673  0.27441213    -0.06300
C2566       C  0.49676407  0.53274514  0.25456575    -0.15900
C2567       C  0.49044766  0.54643821  0.23562962    -0.01500
C2568       C  0.49395976  0.57009327  0.23677830    -0.09000
C2569       C  0.51788277  0.57758549  0.29731462     0.65300
H2570       H  0.50888725  0.53268146  0.28907137     0.10700
C2571       C  0.47941909  0.53641058  0.21463048     0.63700
H2572       H  0.48934991  0.58094442  0.22249718     0.08100
F2573       F  0.45446519  0.64156082  0.28694079    -0.19400
F2574       F  0.45830454  0.66778167  0.25927083    -0.15600
F2575       F  0.47867064  0.67059185  0.29168474    -0.19100
F2576       F  0.53361487  0.59107016  0.21433485    -0.22500
F2577       F  0.55264352  0.58712996  0.24749168    -0.24000
F2578       F  0.56012212  0.61663055  0.22426131    -0.17900
F2579       F  0.47138418  0.55313119  0.19994736    -0.20400
F2580       F  0.46115140  0.52303347  0.22115163    -0.21600
F2581       F  0.49517671  0.52354757  0.20286950    -0.18800
F2582       F  0.52305658  0.56126322  0.31365386    -0.18900
F2583       F  0.50185160  0.59217440  0.30651360    -0.22700
F2584       F  0.53748696  0.58975211  0.29257964    -0.24300
C2585       C  0.49797077  0.76700902  0.07845044    -0.11100
C2586       C  0.49887626  0.74477933  0.08715958     0.11500
C2587       C  0.49643852  0.72602765  0.07221659    -0.02900
C2588       C  0.49617632  0.73020393  0.04855318    -0.05600
C2589       C  0.49682656  0.75246353  0.03952244    -0.16400
C2590       C  0.49616128  0.77131566  0.05484187     0.02500
C2591       C  0.50123660  0.74190766  0.11222236     0.12400
C2592       C  0.49422757  0.70179129  0.08121769     0.63100
H2593       H  0.49572695  0.71595684  0.03682544     0.12500
C2594       C  0.49289430  0.79575553  0.04694278     0.55200
H2595       H  0.49839901  0.78100702  0.09051433     0.08300
C2596       C  0.52267598  0.74244918  0.12315863    -0.05500
C2597       C  0.52349603  0.74042774  0.14710676    -0.06300
C2598       C  0.50362683  0.73829854  0.16031950    -0.15900
C2599       C  0.48208860  0.73816444  0.14925111    -0.01500
C2600       C  0.48138096  0.74002788  0.12528817    -0.09000
C2601       C  0.54448629  0.74596524  0.10965286     0.65300
H2602       H  0.53974997  0.74088733  0.15578896     0.10700
C2603       C  0.45984852  0.73703884  0.16247520     0.63700
H2604       H  0.46522057  0.74024251  0.11641736     0.08100
F2605       F  0.49590717  0.81121682  0.06456291    -0.19400
F2606       F  0.47104330  0.79844976  0.03873490    -0.15600
F2607       F  0.50828557  0.80116166  0.03010463    -0.19100
F2608       F  0.47585223  0.70030063  0.09591678    -0.22500
F2609       F  0.51374446  0.69567576  0.09284210    -0.24000
F2610       F  0.49079312  0.68625191  0.06374509    -0.17900
F2611       F  0.44120152  0.73991474  0.14832226    -0.20400
F2612       F  0.45928112  0.75412641  0.17875480    -0.21600
F2613       F  0.45774768  0.71600217  0.17302374    -0.18800
F2614       F  0.56356477  0.74431802  0.12341747    -0.18900
F2615       F  0.54436463  0.76741230  0.09975178    -0.22700
F2616       F  0.54629877  0.72969940  0.09266808    -0.24300
C2617       C  0.53941159  0.86253386  0.23004240    -0.11100
C2618       C  0.52202974  0.87704050  0.23737703     0.11500
C2619       C  0.50280141  0.86773329  0.24866369    -0.02900
C2620       C  0.50130419  0.84388151  0.25149516    -0.05600
C2621       C  0.51840110  0.82908095  0.24355900    -0.16400
C2622       C  0.53836074  0.83874820  0.23338775     0.02500
C2623       C  0.52411652  0.90189767  0.23239369     0.12400
C2624       C  0.48377976  0.88293030  0.25742719     0.63100
H2625       H  0.48630894  0.83658382  0.25940223     0.12500
C2626       C  0.55881246  0.82450486  0.22621137     0.55200
H2627       H  0.55381089  0.87008696  0.22128160     0.08300
C2628       C  0.53835366  0.91655396  0.24529142    -0.05500
C2629       C  0.53787237  0.94016863  0.24065222    -0.06300
C2630       C  0.52342768  0.94938348  0.22395114    -0.15900
C2631       C  0.51001940  0.93460431  0.21044151    -0.01500
C2632       C  0.51099940  0.91096463  0.21456133    -0.09000
C2633       C  0.55368195  0.90735186  0.26404176     0.65300
H2634       H  0.54833265  0.95176648  0.25048709     0.10700
C2635       C  0.49392760  0.94388158  0.19256296     0.63700
H2636       H  0.50066370  0.89937954  0.20456960     0.08100
F2637       F  0.56505926  0.80993820  0.24376762    -0.19400
F2638       F  0.57752091  0.83799343  0.22115308    -0.15600
F2639       F  0.55363310  0.81202773  0.20685384    -0.19100
F2640       F  0.47244100  0.89275575  0.23921977    -0.22500
F2641       F  0.49264140  0.89996518  0.27112437    -0.24000
F2642       F  0.46809054  0.87078003  0.27026401    -0.17900
F2643       F  0.48405264  0.92665775  0.17979015    -0.20400
F2644       F  0.50561332  0.95812266  0.17776516    -0.21600
F2645       F  0.47677397  0.95589556  0.20329792    -0.18800
F2646       F  0.56424172  0.92473649  0.27602552    -0.18900
F2647       F  0.57040409  0.89376933  0.25454471    -0.22700
F2648       F  0.54112669  0.89454413  0.27942230    -0.24300
C2649       C  0.30734453  0.80177041  0.81506729    -0.11100
C2650       C  0.32790899  0.80925232  0.80569109     0.11500
C2651       C  0.33446865  0.80121305  0.78392746    -0.02900
C2652       C  0.31939377  0.78708330  0.77164833    -0.05600
C2653       C  0.29798934  0.78012037  0.78038644    -0.16400
C2654       C  0.29291825  0.78632058  0.80360204     0.02500
C2655       C  0.34390114  0.82194016  0.82089818     0.12400
C2656       C  0.35778487  0.80673824  0.77411155     0.63100
H2657       H  0.32525013  0.78036775  0.75559336     0.12500
C2658       C  0.27313843  0.77705123  0.81763357     0.55200
H2659       H  0.30315091  0.80724419  0.83226466     0.08300
C2660       C  0.34389885  0.84577841  0.82312209    -0.05500
C2661       C  0.36010915  0.85599529  0.83756418    -0.06300
C2662       C  0.37529762  0.84351799  0.85210026    -0.15900
C2663       C  0.37279437  0.81865040  0.85143487    -0.01500
C2664       C  0.35807257  0.80903224  0.83486274    -0.09000
C2665       C  0.32632947  0.86030154  0.81083748     0.65300
H2666       H  0.36050512  0.87442994  0.83823793     0.10700
C2667       C  0.38260420  0.80097288  0.86814385     0.63700
H2668       H  0.35640436  0.79072546  0.83308460     0.08100
F2669       F  0.25512757  0.79212950  0.81658242    -0.19400
F2670       F  0.27939988  0.77469656  0.84034895    -0.15600
F2671       F  0.26621967  0.75578106  0.81054156    -0.19100
F2672       F  0.37441129  0.79690403  0.78759776    -0.22500
F2673       F  0.36107699  0.83007904  0.77349712    -0.24000
F2674       F  0.36035668  0.79855726  0.75207036    -0.17900
F2675       F  0.37823436  0.77868970  0.86155490    -0.20400
F2676       F  0.37228098  0.80341405  0.88917979    -0.21600
F2677       F  0.40586032  0.80221856  0.86985107    -0.18800
F2678       F  0.32929814  0.88335148  0.81509360    -0.18900
F2679       F  0.30480411  0.85423350  0.81822463    -0.22700
F2680       F  0.32769904  0.85696248  0.78750629    -0.24300
C2681       C  0.00498266  0.76921810  0.56829639    -0.11100
C2682       C  0.99144393  0.75183398  0.57762074     0.11500
C2683       C  0.97617323  0.73964160  0.56348913    -0.02900
C2684       C  0.97625169  0.74424188  0.53989159    -0.05600
C2685       C  0.99138535  0.76011136  0.53032699    -0.16400
C2686       C  0.00551721  0.77330887  0.54464729     0.02500
C2687       C  0.99453499  0.74615354  0.60207529     0.12400
C2688       C  0.96043287  0.72147976  0.57321993     0.63100
H2689       H  0.96512175  0.73484415  0.52855752     0.12500
C2690       C  0.02159893  0.79099401  0.53485082     0.55200
H2691       H  0.01604339  0.77872176  0.57962143     0.08300
C2692       C  0.01332228  0.73302341  0.60970563    -0.05500
C2693       C  0.01584407  0.72909389  0.63327773    -0.06300
C2694       C  0.00016201  0.73776861  0.64901389    -0.15900
C2695       C  0.98123045  0.75056255  0.64141236    -0.01500
C2696       C  0.97883029  0.75475469  0.61789422    -0.09000
C2697       C  0.03078656  0.72354431  0.59306637     0.65300
H2698       H  0.03032278  0.71962257  0.63968424     0.10700
C2699       C  0.96398059  0.76004068  0.65824959     0.63700
H2700       H  0.96482121  0.76500468  0.61164761     0.08100
F2701       F  0.03785146  0.78027031  0.52162770    -0.19400
F2702       F  0.03265833  0.80312189  0.55182100    -0.15600
F2703       F  0.00957374  0.80632708  0.52153438    -0.19100
F2704       F  0.94572543  0.73119700  0.58886413    -0.22500
F2705       F  0.97301480  0.70469762  0.58400568    -0.24000
F2706       F  0.94749655  0.71121935  0.55635060    -0.17900
F2707       F  0.94690641  0.77213561  0.64735818    -0.20400
F2708       F  0.97468272  0.77456002  0.67345620    -0.21600
F2709       F  0.95401557  0.74229798  0.67027288    -0.18800
F2710       F  0.04651087  0.70970814  0.60394084    -0.18900
F2711       F  0.04246737  0.74125353  0.58271864    -0.22700
F2712       F  0.02008438  0.71068294  0.57645359    -0.24300
C2713       C  0.17775904  0.76198131  0.76181403    -0.11100
C2714       C  0.17079607  0.75570150  0.73984068     0.11500
C2715       C  0.18663414  0.75567337  0.72174397    -0.02900
C2716       C  0.20965508  0.75926181  0.72690030    -0.05600
C2717       C  0.21728173  0.76286816  0.74944875    -0.16400
C2718       C  0.20079282  0.76601327  0.76700669     0.02500
C2719       C  0.14650658  0.75022605  0.73624146     0.12400
C2720       C  0.17930165  0.75143083  0.69722043     0.63100
H2721       H  0.22208836  0.75827456  0.71329022     0.12500
C2722       C  0.20692026  0.77358414  0.79096577     0.55200
H2723       H  0.16485642  0.76333128  0.77497412     0.08300
C2724       C  0.13745222  0.72834201  0.74098509    -0.05500
C2725       C  0.11391029  0.72485971  0.73832436    -0.06300
C2726       C  0.09936454  0.74258442  0.73130251    -0.15900
C2727       C  0.10871045  0.76453090  0.72643314    -0.01500
C2728       C  0.13219443  0.76785459  0.72911747    -0.09000
C2729       C  0.15255069  0.70900467  0.74935943     0.65300
H2730       H  0.10659083  0.70832247  0.74216478     0.10700
C2731       C  0.09409730  0.78480369  0.71946994     0.63700
H2732       H  0.13969446  0.78446389  0.72598153     0.08100
F2733       F  0.18820293  0.77387042  0.80535212    -0.19400
F2734       F  0.21549544  0.79553608  0.79019158    -0.15600
F2735       F  0.22269583  0.75890283  0.80030920    -0.19100
F2736       F  0.16391776  0.76794164  0.69047614    -0.22500
F2737       F  0.16922719  0.73020126  0.69536429    -0.24000
F2738       F  0.19754130  0.75219039  0.68231514    -0.17900
F2739       F  0.10655704  0.80482004  0.71808735    -0.20400
F2740       F  0.07707622  0.78810318  0.73546151    -0.21600
F2741       F  0.08462481  0.78093356  0.69818870    -0.18800
F2742       F  0.14043706  0.68895589  0.75241366    -0.18900
F2743       F  0.16223386  0.71481883  0.77007199    -0.22700
F2744       F  0.16966538  0.70485023  0.73369727    -0.24300
C2745       C  0.25970701  0.50380661  0.61486849    -0.11100
C2746       C  0.26562710  0.48251626  0.60569547     0.11500
C2747       C  0.27064773  0.46410341  0.62048760    -0.02900
C2748       C  0.26828929  0.46735973  0.64417569    -0.05600
C2749       C  0.26189423  0.48855209  0.65355059    -0.16400
C2750       C  0.25790485  0.50728840  0.63863729     0.02500
C2751       C  0.26785302  0.48053039  0.58049944     0.12400
C2752       C  0.27894440  0.44129721  0.61131712     0.63100
H2753       H  0.27168209  0.45326007  0.65566067     0.12500
C2754       C  0.25276384  0.53104048  0.64759858     0.55200
H2755       H  0.25666797  0.51778595  0.60311502     0.08300
C2756       C  0.24888700  0.47656734  0.56616825    -0.05500
C2757       C  0.25237922  0.47552312  0.54239424    -0.06300
C2758       C  0.27403617  0.47846679  0.53266901    -0.15900
C2759       C  0.29293834  0.48283718  0.54705016    -0.01500
C2760       C  0.28942526  0.48383166  0.57082588    -0.09000
C2761       C  0.22507576  0.47376302  0.57591465     0.65300
H2762       H  0.23808510  0.47270850  0.53107522     0.10700
C2763       C  0.31656857  0.48703042  0.53748650     0.63700
H2764       H  0.30353129  0.48731492  0.58219570     0.08100
F2765       F  0.25266512  0.54717447  0.63026892    -0.19400
F2766       F  0.26917626  0.53739873  0.66328398    -0.15600
F2767       F  0.23159379  0.53128303  0.65790423    -0.19100
F2768       F  0.29914397  0.44430820  0.59957471    -0.22500
F2769       F  0.26298215  0.43209222  0.59667435    -0.24000
F2770       F  0.28281452  0.42568914  0.62868646    -0.17900
F2771       F  0.33181485  0.49334034  0.55436003    -0.20400
F2772       F  0.31592560  0.50437261  0.52144495    -0.21600
F2773       F  0.32462179  0.46729959  0.52746904    -0.18800
F2774       F  0.20904012  0.47064506  0.55888613    -0.18900
F2775       F  0.21906267  0.49299583  0.58815180    -0.22700
F2776       F  0.22432320  0.45501439  0.59025878    -0.24300
C2777       C  0.25276897  0.61911231  0.73143586    -0.11100
C2778       C  0.26425828  0.62807744  0.75042510     0.11500
C2779       C  0.27316419  0.61303991  0.76705067    -0.02900
C2780       C  0.27089470  0.58937836  0.76368718    -0.05600
C2781       C  0.25976072  0.58002383  0.74445859    -0.16400
C2782       C  0.25033889  0.59533462  0.72800603     0.02500
C2783       C  0.26618835  0.65336500  0.75279132     0.12400
C2784       C  0.28480751  0.62197039  0.78845292     0.63100
H2785       H  0.27775119  0.57794280  0.77647661     0.12500
C2786       C  0.23798540  0.58700368  0.70680239     0.55200
H2787       H  0.24571124  0.63107959  0.71922743     0.08300
C2788       C  0.28350709  0.66607575  0.74167445    -0.05500
C2789       C  0.28446112  0.68988490  0.74504568    -0.06300
C2790       C  0.26813272  0.70133686  0.75823075    -0.15900
C2791       C  0.25055350  0.68870187  0.76893535    -0.01500
C2792       C  0.25002947  0.66480281  0.76622475    -0.09000
C2793       C  0.30046057  0.65461524  0.72580935     0.65300
H2794       H  0.29753288  0.69993700  0.73670462     0.10700
C2795       C  0.23227974  0.70049169  0.78286536     0.63700
H2796       H  0.23669955  0.65482031  0.77423298     0.08100
F2797       F  0.23143337  0.60485821  0.69273256    -0.19400
F2798       F  0.21855106  0.57523728  0.71309326    -0.15600
F2799       F  0.25210818  0.57291477  0.69424382    -0.19100
F2800       F  0.26952230  0.63449419  0.80127412    -0.22500
F2801       F  0.30297002  0.63576830  0.78255905    -0.24000
F2802       F  0.29298191  0.60445368  0.80207682    -0.17900
F2803       F  0.21908859  0.71390946  0.76868080    -0.20400
F2804       F  0.24225130  0.71402395  0.79939322    -0.21600
F2805       F  0.21812425  0.68500220  0.79374383    -0.18800
F2806       F  0.31603000  0.67003337  0.71697146    -0.18900
F2807       F  0.28907480  0.64472144  0.70769190    -0.22700
F2808       F  0.31234458  0.63791062  0.73745126    -0.24300
C2809       C  0.25032674  0.61498764  0.48993794    -0.11100
C2810       C  0.27271499  0.60712847  0.48746369     0.11500
C2811       C  0.29093619  0.62283639  0.48669831    -0.02900
C2812       C  0.28607600  0.64617170  0.48895511    -0.05600
C2813       C  0.26367228  0.65423624  0.49142779    -0.16400
C2814       C  0.24537925  0.63841908  0.49189504     0.02500
C2815       C  0.27651936  0.58226965  0.48525060     0.12400
C2816       C  0.31532844  0.61498993  0.48308102     0.63100
H2817       H  0.29985692  0.65844276  0.48849917     0.12500
C2818       C  0.22077993  0.64612604  0.49361046     0.55200
H2819       H  0.23672551  0.60250692  0.49019154     0.08300
C2820       C  0.27807961  0.56793294  0.50458535    -0.05500
C2821       C  0.28132898  0.54450287  0.50116864    -0.06300
C2822       C  0.28205270  0.53482460  0.47918444    -0.15900
C2823       C  0.28176911  0.54948570  0.45970178    -0.01500
C2824       C  0.27860881  0.57304905  0.46326712    -0.09000
C2825       C  0.27494952  0.57709408  0.52867721     0.65300
H2826       H  0.28198580  0.53328240  0.51587395     0.10700
C2827       C  0.28544363  0.54109936  0.43534786     0.63700
H2828       H  0.27782396  0.58466699  0.44886333     0.08100
F2829       F  0.21685532  0.65566606  0.51485379    -0.19400
F2830       F  0.20576161  0.62812483  0.49087463    -0.15600
F2831       F  0.21619117  0.66207361  0.47675769    -0.19100
F2832       F  0.31731493  0.60452025  0.46201976    -0.22500
F2833       F  0.32150733  0.59966344  0.49995429    -0.24000
F2834       F  0.33051689  0.63304709  0.48364723    -0.17900
F2835       F  0.28075911  0.55794389  0.41939409    -0.20400
F2836       F  0.27161262  0.52273046  0.43039933    -0.21600
F2837       F  0.30794692  0.53487602  0.43260031    -0.18800
F2838       F  0.27919790  0.56055990  0.54507783    -0.18900
F2839       F  0.25280684  0.58452760  0.53139872    -0.22700
F2840       F  0.28958861  0.59512357  0.53259231    -0.24300
C2841       C  0.28377571  0.73800274  0.61496180    -0.11100
C2842       C  0.26430271  0.74048829  0.62850007     0.11500
C2843       C  0.24255790  0.74097428  0.61806572    -0.02900
C2844       C  0.24113028  0.73960188  0.59407840    -0.05600
C2845       C  0.26070412  0.73799722  0.58046981    -0.16400
C2846       C  0.28239244  0.73634066  0.59105194     0.02500
C2847       C  0.26741116  0.74351105  0.65349875     0.12400
C2848       C  0.22103732  0.74333182  0.63219139     0.63100
H2849       H  0.22474570  0.74063959  0.58569326     0.12500
C2850       C  0.30403794  0.73245697  0.57733808     0.55200
H2851       H  0.30020965  0.73779273  0.62331751     0.08300
C2852       C  0.27188599  0.72491471  0.66827393    -0.05500
C2853       C  0.27432107  0.72918405  0.69176181    -0.06300
C2854       C  0.27267042  0.75127933  0.70081912    -0.15900
C2855       C  0.26843868  0.76999675  0.68595529    -0.01500
C2856       C  0.26625944  0.76570080  0.66237920    -0.09000
C2857       C  0.27397390  0.70067815  0.65933202     0.65300
H2858       H  0.27726858  0.71513284  0.70339577     0.10700
C2859       C  0.26532746  0.79422075  0.69472622     0.63700
H2860       H  0.26330822  0.77965595  0.65057765     0.08100
F2861       F  0.30071121  0.71516667  0.56160384    -0.19400
F2862       F  0.32200770  0.72611242  0.59125166    -0.15600
F2863       F  0.31012774  0.75227533  0.56601370    -0.19100
F2864       F  0.22084334  0.76430753  0.64294517    -0.22500
F2865       F  0.22011938  0.72621127  0.64846360    -0.24000
F2866       F  0.20166484  0.74177611  0.61885057    -0.17900
F2867       F  0.25808306  0.80887480  0.67761916    -0.20400
F2868       F  0.28570197  0.80251601  0.70298078    -0.21600
F2869       F  0.24922432  0.79464837  0.71195346    -0.18800
F2870       F  0.27643369  0.68499706  0.67689952    -0.18900
F2871       F  0.29279969  0.69899222  0.64527540    -0.22700
F2872       F  0.25475809  0.69485664  0.64706314    -0.24300
C2873       C  0.08752854  0.77067523  0.47476078    -0.11100
C2874       C  0.09567690  0.74830727  0.47742785     0.11500
C2875       C  0.08011338  0.72990597  0.47750525    -0.02900
C2876       C  0.05682204  0.73466767  0.47541139    -0.05600
C2877       C  0.04834699  0.75707574  0.47355986    -0.16400
C2878       C  0.06411699  0.77550675  0.47229850     0.02500
C2879       C  0.12065813  0.74472143  0.47995069     0.12400
C2880       C  0.08791717  0.70530598  0.48018331     0.63100
H2881       H  0.04486436  0.72063634  0.47577050     0.12500
C2882       C  0.05693415  0.80004995  0.46792785     0.55200
H2883       H  0.09985692  0.78441046  0.47449388     0.08300
C2884       C  0.13580929  0.74696165  0.46127193    -0.05500
C2885       C  0.15931395  0.74459718  0.46524320    -0.06300
C2886       C  0.16813475  0.73926288  0.48701757    -0.15900
C2887       C  0.15268144  0.73531951  0.50532176    -0.01500
C2888       C  0.12925278  0.73895261  0.50156720    -0.09000
C2889       C  0.12723611  0.75202681  0.43727362     0.65300
H2890       H  0.17109461  0.74714727  0.45121978     0.10700
C2891       C  0.16064610  0.72754328  0.52874391     0.63700
H2892       H  0.11730972  0.73732911  0.51557896     0.08100
F2893       F  0.05036763  0.80242442  0.44536765    -0.19400
F2894       F  0.07461234  0.81520613  0.47168241    -0.15600
F2895       F  0.03922850  0.80622380  0.48216143    -0.19100
F2896       F  0.09651187  0.70194672  0.50190482    -0.22500
F2897       F  0.10459838  0.70039285  0.46426574    -0.24000
F2898       F  0.07023846  0.68998849  0.47705138    -0.17900
F2899       F  0.14274446  0.72525369  0.54398469    -0.20400
F2900       F  0.17579058  0.74323172  0.53766807    -0.21600
F2901       F  0.17108583  0.70647129  0.52691911    -0.18800
F2902       F  0.14427309  0.74963035  0.42109782    -0.18900
F2903       F  0.11920735  0.77416188  0.43613596    -0.22700
F2904       F  0.10986863  0.73714595  0.43159689    -0.24300
C2905       C  0.52522948  0.82256695  0.48832503    -0.11100
C2906       C  0.52407972  0.83483645  0.50873109     0.11500
C2907       C  0.52551093  0.82311910  0.52987161    -0.02900
C2908       C  0.52749205  0.79909484  0.52971008    -0.05600
C2909       C  0.52819977  0.78668023  0.50912844    -0.16400
C2910       C  0.52843136  0.79889206  0.48808495     0.02500
C2911       C  0.52043660  0.85984998  0.50690159     0.12400
C2912       C  0.52387620  0.83582727  0.55239440     0.63100
H2913       H  0.52715640  0.78973903  0.54569334     0.12500
C2914       C  0.53268716  0.78804435  0.46501784     0.55200
H2915       H  0.52407158  0.83178945  0.47226318     0.08300
C2916       C  0.53822840  0.87499286  0.50083826    -0.05500
C2917       C  0.53292683  0.89804303  0.49681326    -0.06300
C2918       C  0.51056968  0.90641397  0.49856101    -0.15900
C2919       C  0.49273661  0.89114595  0.50462676    -0.01500
C2920       C  0.49808697  0.86802466  0.50856450    -0.09000
C2921       C  0.56272103  0.86690982  0.49863865     0.65300
H2922       H  0.54640624  0.90985832  0.49238395     0.10700
C2923       C  0.46809950  0.89882061  0.50622009     0.63700
H2924       H  0.48475055  0.85592089  0.51266578     0.08100
F2925       F  0.54660548  0.80195414  0.45189530    -0.19400
F2926       F  0.51227200  0.78515011  0.45368779    -0.15600
F2927       F  0.54364897  0.76743285  0.46714472    -0.19100
F2928       F  0.50244940  0.84525260  0.55462261    -0.22500
F2929       F  0.53989228  0.85308306  0.55315466    -0.24000
F2930       F  0.52761015  0.82152205  0.57087952    -0.17900
F2931       F  0.46191166  0.91002782  0.48633517    -0.20400
F2932       F  0.46535310  0.91326751  0.52467847    -0.21600
F2933       F  0.45341038  0.88056516  0.50918789    -0.18800
F2934       F  0.57735176  0.88463968  0.49317643    -0.18900
F2935       F  0.56447609  0.85068627  0.48162256    -0.22700
F2936       F  0.56988457  0.85749339  0.51906725    -0.24300
C2937       C  0.55305964  0.68788602  0.57691054    -0.11100
C2938       C  0.57207854  0.67709837  0.56728479     0.11500
C2939       C  0.57781933  0.68221344  0.54431968    -0.02900
C2940       C  0.56370950  0.69699029  0.53158134    -0.05600
C2941       C  0.54381362  0.70708259  0.54067130    -0.16400
C2942       C  0.53991801  0.70409207  0.56470788     0.02500
C2943       C  0.58586419  0.66082333  0.58167632     0.12400
C2944       C  0.59888708  0.67217106  0.53321134     0.63100
H2945       H  0.56862415  0.70106856  0.51426268     0.12500
C2946       C  0.52326038  0.71803722  0.57887214     0.55200
H2947       H  0.54894090  0.68421766  0.59460924     0.08300
C2948       C  0.60074956  0.66812641  0.59908414    -0.05500
C2949       C  0.61335392  0.65167419  0.61137531    -0.06300
C2950       C  0.61430777  0.62806453  0.60536326    -0.15900
C2951       C  0.59621451  0.62070853  0.59018750    -0.01500
C2952       C  0.58310813  0.63737599  0.57837090    -0.09000
C2953       C  0.60377032  0.69331868  0.60448798     0.65300
H2954       H  0.62251469  0.65773561  0.62606905     0.10700
C2955       C  0.58907173  0.59595910  0.58658204     0.63700
H2956       H  0.57027765  0.63229845  0.56613943     0.08100
F2957       F  0.53260071  0.72275279  0.60008137    -0.19400
F2958       F  0.50349458  0.70566841  0.58217860    -0.15600
F2959       F  0.51818035  0.73884737  0.56905401    -0.19100
F2960       F  0.59665246  0.64877459  0.53174366    -0.22500
F2961       F  0.61787810  0.67746582  0.54605501    -0.24000
F2962       F  0.60232631  0.68052263  0.51131444    -0.17900
F2963       F  0.58111473  0.58677431  0.60676093    -0.20400
F2964       F  0.60675199  0.58326254  0.57830931    -0.21600
F2965       F  0.57160112  0.59385482  0.57085563    -0.18800
F2966       F  0.62106793  0.69698115  0.62011751    -0.18900
F2967       F  0.58390774  0.70201706  0.61358977    -0.22700
F2968       F  0.60917960  0.70521041  0.58477184    -0.24300
C2969       C  0.53137236  0.72582833  0.41998337    -0.11100
C2970       C  0.51055066  0.73333075  0.41106692     0.11500
C2971       C  0.49172540  0.73602390  0.42584043    -0.02900
C2972       C  0.49482544  0.73237163  0.44938137    -0.05600
C2973       C  0.51612876  0.72667162  0.45879368    -0.16400
C2974       C  0.53469369  0.72242628  0.44365310     0.02500
C2975       C  0.50863702  0.73680888  0.38592438     0.12400
C2976       C  0.46852817  0.74308325  0.41682542     0.63100
H2977       H  0.48052575  0.73460284  0.46080253     0.12500
C2978       C  0.55792770  0.71438103  0.45181004     0.55200
H2979       H  0.54512954  0.72275695  0.40805447     0.08300
C2980       C  0.51653817  0.75684510  0.37478455    -0.05500
C2981       C  0.51441595  0.75851551  0.35079955    -0.06300
C2982       C  0.50539257  0.74055842  0.33782919    -0.15900
C2983       C  0.49758148  0.72055843  0.34905235    -0.01500
C2984       C  0.49931910  0.71907036  0.37296506    -0.09000
C2985       C  0.52754803  0.77611371  0.38811254     0.65300
H2986       H  0.52061096  0.77349401  0.34186448     0.10700
C2987       C  0.48761107  0.70076661  0.33577894     0.63700
H2988       H  0.49379627  0.70377081  0.38180399     0.08100
F2989       F  0.57392816  0.71502618  0.43443293    -0.19400
F2990       F  0.55640022  0.69202727  0.45922622    -0.15600
F2991       F  0.56592968  0.72801103  0.46930266    -0.19100
F2992       F  0.46003648  0.72628209  0.40264672    -0.22500
F2993       F  0.47034664  0.76324943  0.40464493    -0.24000
F2994       F  0.45300219  0.74646062  0.43431702    -0.17900
F2995       F  0.47901017  0.68396490  0.35006615    -0.20400
F2996       F  0.50436039  0.69105552  0.32238217    -0.21600
F2997       F  0.47006930  0.70848636  0.32204789    -0.18800
F2998       F  0.53358013  0.79418020  0.37405732    -0.18900
F2999       F  0.54703051  0.76831401  0.39876872    -0.22700
F3000       F  0.51262058  0.78418682  0.40445555    -0.24300
C3001       C  0.42935535  0.75574047  0.51699356    -0.11100
C3002       C  0.41863155  0.73760306  0.50565037     0.11500
C3003       C  0.43189701  0.71929531  0.49716122    -0.02900
C3004       C  0.45548090  0.71920799  0.50147217    -0.05600
C3005       C  0.46617792  0.73731435  0.51289237    -0.16400
C3006       C  0.45306595  0.75610179  0.52043300     0.02500
C3007       C  0.39349626  0.73859115  0.50257867     0.12400
C3008       C  0.42128810  0.70038059  0.48299917     0.63100
H3009       H  0.46597341  0.70538145  0.49518008     0.12500
C3010       C  0.46414420  0.77665344  0.53153196     0.55200
H3011       H  0.41896290  0.76987010  0.52274888     0.08300
C3012       C  0.37831412  0.73181080  0.52015403    -0.05500
C3013       C  0.35474171  0.73374514  0.51633313    -0.06300
C3014       C  0.34601670  0.74196322  0.49554697    -0.15900
C3015       C  0.36117051  0.74894913  0.47806805    -0.01500
C3016       C  0.38478728  0.74728770  0.48197282    -0.09000
C3017       C  0.38701832  0.72259654  0.54282506     0.65300
H3018       H  0.34283488  0.72866785  0.52955175     0.10700
C3019       C  0.35235705  0.75879956  0.45577947     0.63700
H3020       H  0.39671842  0.75280698  0.46896396     0.08100
F3021       F  0.44818399  0.79181307  0.53999994    -0.19400
F3022       F  0.47719521  0.78806074  0.51552831    -0.15600
F3023       F  0.47781835  0.76972716  0.54947309    -0.19100
F3024       F  0.41234754  0.70946542  0.46311784    -0.22500
F3025       F  0.40408892  0.68979980  0.49517156    -0.24000
F3026       F  0.43708144  0.68393868  0.47695985    -0.17900
F3027       F  0.36988495  0.76574239  0.44155098    -0.20400
F3028       F  0.33876312  0.77753096  0.46027885    -0.21600
F3029       F  0.33973498  0.74253971  0.44431140    -0.18800
F3030       F  0.36940709  0.71615985  0.55719560    -0.18900
F3031       F  0.39965740  0.73914857  0.55383755    -0.22700
F3032       F  0.40057206  0.70368696  0.53914242    -0.24300
C3033       C  0.11429337  0.56969447  0.16196983    -0.11100
C3034       C  0.09112644  0.57254684  0.15852760     0.11500
C3035       C  0.08370015  0.58983806  0.14361593    -0.02900
C3036       C  0.10007112  0.60298314  0.13180586    -0.05600
C3037       C  0.12405937  0.59858497  0.13244753    -0.16400
C3038       C  0.13090378  0.58166885  0.14937012     0.02500
C3039       C  0.07533835  0.55772538  0.17196026     0.12400
C3040       C  0.05847884  0.59476100  0.14053562     0.63100
H3041       H  0.09341605  0.61737602  0.12262689     0.12500
C3042       C  0.15481316  0.57456436  0.15615881     0.55200
H3043       H  0.11954288  0.55722174  0.17467552     0.08300
C3044       C  0.07125261  0.53468906  0.16619350    -0.05500
C3045       C  0.05759746  0.52124328  0.18081411    -0.06300
C3046       C  0.04831913  0.52965484  0.20152295    -0.15900
C3047       C  0.05099879  0.55367781  0.20588489    -0.01500
C3048       C  0.06535592  0.56668587  0.19162850    -0.09000
C3049       C  0.08148769  0.52430118  0.14470091     0.65300
H3050       H  0.05395670  0.50404816  0.17557675     0.10700
C3051       C  0.03978416  0.56731497  0.22493032     0.63700
H3052       H  0.06872280  0.58439678  0.19583779     0.08100
F3053       F  0.15678010  0.55104698  0.15478363    -0.19400
F3054       F  0.15876419  0.58115311  0.17851556    -0.15600
F3055       F  0.17153753  0.58346596  0.14290908    -0.19100
F3056       F  0.04954125  0.60331888  0.16062592    -0.22500
F3057       F  0.04704303  0.57494914  0.13482534    -0.24000
F3058       F  0.05455799  0.61057792  0.12337394    -0.17900
F3059       F  0.05610419  0.57350748  0.24077256    -0.20400
F3060       F  0.02256859  0.55599796  0.23599371    -0.21600
F3061       F  0.03031415  0.58697615  0.21586292    -0.18800
F3062       F  0.07461223  0.50192439  0.14154070    -0.18900
F3063       F  0.10495013  0.52443979  0.14612262    -0.22700
F3064       F  0.07488598  0.53677246  0.12575094    -0.24300
C3065       C  0.38088438  0.74207901  0.25565871    -0.11100
C3066       C  0.37383674  0.73829130  0.23300552     0.11500
C3067       C  0.39017078  0.73820793  0.21525572    -0.02900
C3068       C  0.41325747  0.74049038  0.22099529    -0.05600
C3069       C  0.42054912  0.74361955  0.24367561    -0.16400
C3070       C  0.40409242  0.74479649  0.26137736     0.02500
C3071       C  0.34910504  0.73555657  0.22823391     0.12400
C3072       C  0.38326055  0.73604152  0.19031269     0.63100
H3073       H  0.42598676  0.73990584  0.20762163     0.12500
C3074       C  0.41096679  0.74804299  0.28614508     0.55200
H3075       H  0.36797451  0.74268674  0.26886634     0.08300
C3076       C  0.33756031  0.71446325  0.23095015    -0.05500
C3077       C  0.31384752  0.71372558  0.22729341    -0.06300
C3078       C  0.30148840  0.73342856  0.22160319    -0.15900
C3079       C  0.31347506  0.75391626  0.21681500    -0.01500
C3080       C  0.33702473  0.75475558  0.22081946    -0.09000
C3081       C  0.35011690  0.69303634  0.23827986     0.65300
H3082       H  0.30455885  0.69801876  0.23014628     0.10700
C3083       C  0.30183809  0.77446543  0.20635529     0.63700
H3084       H  0.34623344  0.77060455  0.21840606     0.08100
F3085       F  0.39232748  0.74782309  0.30064596    -0.19400
F3086       F  0.42186423  0.76879645  0.28869132    -0.15600
F3087       F  0.42546249  0.73065589  0.29273909    -0.19100
F3088       F  0.37053679  0.75481656  0.18392127    -0.22500
F3089       F  0.37047600  0.71652369  0.18707422    -0.24000
F3090       F  0.40195947  0.73487651  0.17598565    -0.17900
F3091       F  0.28878899  0.78542327  0.22253826    -0.20400
F3092       F  0.28831456  0.76744587  0.18840299    -0.21600
F3093       F  0.31740345  0.79005229  0.19779245    -0.18800
F3094       F  0.33574190  0.67434689  0.23958867    -0.18900
F3095       F  0.35972809  0.69627238  0.25957764    -0.22700
F3096       F  0.36711222  0.68805112  0.22273960    -0.24300
C3097       C  0.27000712  0.72644146  0.31964034    -0.11100
C3098       C  0.25024839  0.73398900  0.33067708     0.11500
C3099       C  0.23064456  0.73929180  0.31767055    -0.02900
C3100       C  0.23159944  0.73680883  0.29376149    -0.05600
C3101       C  0.25146996  0.72944782  0.28269203    -0.16400
C3102       C  0.27089038  0.72376488  0.29579583     0.02500
C3103       C  0.25083151  0.73618127  0.35593778     0.12400
C3104       C  0.20892520  0.74764901  0.32896334     0.63100
H3105       H  0.21696591  0.74113899  0.28338573     0.12500
C3106       C  0.29231175  0.71457577  0.28478911     0.55200
H3107       H  0.28484241  0.72272516  0.32996160     0.08300
C3108       C  0.24978476  0.71685586  0.37045576    -0.05500
C3109       C  0.25200410  0.72007240  0.39414964    -0.06300
C3110       C  0.25417091  0.74193225  0.40372296    -0.15900
C3111       C  0.25406364  0.76137639  0.38922055    -0.01500
C3112       C  0.25317357  0.75803108  0.36540563    -0.09000
C3113       C  0.24610691  0.69298833  0.36099358     0.65300
H3114       H  0.25171206  0.70544743  0.40551005     0.10700
C3115       C  0.25493954  0.78547682  0.39869384     0.63700
H3116       H  0.25402162  0.77250794  0.35389127     0.08100
F3117       F  0.30763044  0.70653810  0.30085477    -0.19400
F3118       F  0.30283321  0.73175418  0.27256198    -0.15600
F3119       F  0.28687612  0.69667942  0.27041000    -0.19100
F3120       F  0.21257664  0.76879481  0.33872325    -0.22500
F3121       F  0.20212718  0.73246511  0.34575812    -0.24000
F3122       F  0.19132544  0.74975177  0.31339972    -0.17900
F3123       F  0.25703663  0.80163828  0.38151415    -0.20400
F3124       F  0.27333381  0.78779423  0.41322688    -0.21600
F3125       F  0.23508630  0.79004534  0.41053008    -0.18800
F3126       F  0.24284048  0.67710268  0.37824827    -0.18900
F3127       F  0.26481720  0.68635164  0.34834519    -0.22700
F3128       F  0.22706325  0.69266377  0.34714932    -0.24300
C3129       C  0.24018091  0.82369541  0.22278418    -0.11100
C3130       C  0.24488787  0.83032511  0.24528797     0.11500
C3131       C  0.24488385  0.81393234  0.26296959    -0.02900
C3132       C  0.24275041  0.79089607  0.25700754    -0.05600
C3133       C  0.24047734  0.78381458  0.23414687    -0.16400
C3134       C  0.23763634  0.80058713  0.21675135     0.02500
C3135       C  0.25011214  0.85460467  0.24959610     0.12400
C3136       C  0.24760981  0.82066580  0.28790378     0.63100
H3137       H  0.24366551  0.77805559  0.27027131     0.12500
C3138       C  0.23165481  0.79477990  0.19217163     0.55200
H3139       H  0.23891324  0.83692809  0.20988823     0.08300
C3140       C  0.27169036  0.86404167  0.24424113    -0.05500
C3141       C  0.27484505  0.88768983  0.24670084    -0.06300
C3142       C  0.25714562  0.90168928  0.25434748    -0.15900
C3143       C  0.23624598  0.89199816  0.26144885    -0.01500
C3144       C  0.23287504  0.86850958  0.25842236    -0.09000
C3145       C  0.29097919  0.84931585  0.23526117     0.65300
H3146       H  0.29069978  0.89559010  0.24150300     0.10700
C3147       C  0.21783930  0.90642333  0.27256878     0.63700
H3148       H  0.21658168  0.86086960  0.26247927     0.08100
F3149       F  0.23365679  0.81357013  0.17790140    -0.19400
F3150       F  0.20933896  0.78743612  0.19119136    -0.15600
F3151       F  0.24579058  0.77800570  0.18373823    -0.19100
F3152       F  0.22943893  0.83404875  0.29457813    -0.22500
F3153       F  0.26755773  0.83281488  0.29082968    -0.24000
F3154       F  0.24829166  0.80180104  0.30219476    -0.17900
F3155       F  0.20944050  0.92224297  0.25719730    -0.20400
F3156       F  0.22687511  0.91775713  0.29120461    -0.21600
F3157       F  0.19981019  0.89322096  0.28018495    -0.18800
F3158       F  0.31105381  0.86153416  0.23328748    -0.18900
F3159       F  0.28545641  0.84093811  0.21390268    -0.22700
F3160       F  0.29479747  0.83122529  0.24998181    -0.24300
C3161       C  0.18733276  0.69061033  0.18569424    -0.11100
C3162       C  0.19645628  0.66893534  0.18159035     0.11500
C3163       C  0.21741561  0.66300034  0.19194339    -0.02900
C3164       C  0.22976991  0.68000993  0.20350888    -0.05600
C3165       C  0.22109173  0.70218687  0.20708618    -0.16400
C3166       C  0.19795321  0.70621478  0.20052235     0.02500
C3167       C  0.18338841  0.65290676  0.16675434     0.12400
C3168       C  0.22722574  0.63903416  0.19109494     0.63100
H3169       H  0.24632679  0.67569257  0.21035701     0.12500
C3170       C  0.18233198  0.72406430  0.21102053     0.55200
H3171       H  0.17067912  0.69457524  0.17878540     0.08300
C3172       C  0.16120753  0.64532952  0.17188546    -0.05500
C3173       C  0.14913062  0.63314008  0.15516311    -0.06300
C3174       C  0.15867890  0.62559427  0.13405908    -0.15900
C3175       C  0.18335035  0.62896377  0.13220811    -0.01500
C3176       C  0.19362509  0.64526008  0.14669405    -0.09000
C3177       C  0.14915807  0.64985601  0.19443597     0.65300
H3178       H  0.13145211  0.62982406  0.15901512     0.10700
C3179       C  0.20155443  0.61575496  0.11857471     0.63700
H3180       H  0.21091586  0.65080203  0.14330334     0.08100
F3181       F  0.16098248  0.71475592  0.21482592    -0.19400
F3182       F  0.17984777  0.74227648  0.19615158    -0.15600
F3183       F  0.19000942  0.73153824  0.23203313    -0.19100
F3184       F  0.24165346  0.63717541  0.17252856    -0.22500
F3185       F  0.21033787  0.62265784  0.18951287    -0.24000
F3186       F  0.23946055  0.63443371  0.21079030    -0.17900
F3187       F  0.20841074  0.62826813  0.09977462    -0.20400
F3188       F  0.19572781  0.59410994  0.11199572    -0.21600
F3189       F  0.22064905  0.61256295  0.13212111    -0.18800
F3190       F  0.13936934  0.62982044  0.20227927    -0.18900
F3191       F  0.13218990  0.66583344  0.19105148    -0.22700
F3192       F  0.16358808  0.65757003  0.21137927    -0.24300
C3193       C  0.33995456  0.50430186  0.98290569    -0.11100
C3194       C  0.35154878  0.50082704  0.00351812     0.11500
C3195       C  0.33942352  0.50176968  0.02444556    -0.02900
C3196       C  0.31555162  0.50380525  0.02377271    -0.05600
C3197       C  0.30374608  0.50521359  0.00296190    -0.16400
C3198       C  0.31623677  0.50710759  0.98230866     0.02500
C3199       C  0.37661461  0.49775482  0.00249448     0.12400
C3200       C  0.35163138  0.50071633  0.04729129     0.63100
H3201       H  0.30582560  0.50348159  0.03949873     0.12500
C3202       C  0.30501929  0.51300858  0.95976557     0.55200
H3203       H  0.34965873  0.50473607  0.96714125     0.08300
C3204       C  0.38685318  0.47613171  0.99917341    -0.05500
C3205       C  0.41081298  0.47474263  0.99809909    -0.06300
C3206       C  0.42459342  0.49430367  0.99980511    -0.15900
C3207       C  0.41405682  0.51609638  0.00186946    -0.01500
C3208       C  0.39021400  0.51731649  0.00333344    -0.09000
C3209       C  0.37244554  0.45478049  0.99632438     0.65300
H3210       H  0.41898876  0.45830827  0.99610803     0.10700
C3211       C  0.42767068  0.53818435  0.00192582     0.63700
H3212       H  0.38186750  0.53368844  0.00520910     0.08100
F3213       F  0.29726691  0.49336860  0.94934419    -0.19400
F3214       F  0.32023609  0.52365142  0.94512834    -0.15600
F3215       F  0.28714781  0.52792914  0.96323530    -0.19100
F3216       F  0.36635560  0.51901916  0.04914383    -0.22500
F3217       F  0.36391087  0.48070243  0.04907396    -0.24000
F3218       F  0.33656248  0.50158686  0.06548171    -0.17900
F3219       F  0.41384184  0.55709769  0.99903777    -0.20400
F3220       F  0.44329948  0.53811598  0.98421937    -0.21600
F3221       F  0.43890339  0.54055211  0.02253670    -0.18800
F3222       F  0.38570044  0.43541741  0.99390643    -0.18900
F3223       F  0.35901224  0.45689038  0.97705146    -0.22700
F3224       F  0.35856209  0.45170668  0.01515245    -0.24300
C3225       C  0.24829015  0.47321788  0.91501078    -0.11100
C3226       C  0.24807175  0.49414208  0.90345202     0.11500
C3227       C  0.24477957  0.51458526  0.91573256    -0.02900
C3228       C  0.24484523  0.51359904  0.93973291    -0.05600
C3229       C  0.24650253  0.49270562  0.95160142    -0.16400
C3230       C  0.24663017  0.47202783  0.93895365     0.02500
C3231       C  0.25053918  0.49387783  0.87831550     0.12400
C3232       C  0.24031199  0.53705950  0.90349812     0.63100
H3233       H  0.24366576  0.52926897  0.94943199     0.12500
C3234       C  0.24305481  0.44889688  0.95011789     0.55200
H3235       H  0.24960182  0.45772393  0.90500832     0.08300
C3236       C  0.27207158  0.49561716  0.86765409    -0.05500
C3237       C  0.27316975  0.49496175  0.84367526    -0.06300
C3238       C  0.25365992  0.49141414  0.83033470    -0.15900
C3239       C  0.23209221  0.48907727  0.84116247    -0.01500
C3240       C  0.23098408  0.49057503  0.86511628    -0.09000
C3241       C  0.29382213  0.49715969  0.88159558     0.65300
H3242       H  0.28946036  0.49645790  0.83513557     0.10700
C3243       C  0.21025602  0.48535906  0.82771584     0.63700
H3244       H  0.21483479  0.48883201  0.87388283     0.08100
F3245       F  0.23743825  0.43240423  0.93416078    -0.19400
F3246       F  0.22531874  0.45019100  0.96558223    -0.15600
F3247       F  0.26257275  0.44180280  0.96105930    -0.19100
F3248       F  0.22053415  0.53523690  0.89085651    -0.22500
F3249       F  0.25804897  0.54239751  0.88893141    -0.24000
F3250       F  0.23769848  0.55493881  0.91871431    -0.17900
F3251       F  0.21050635  0.46399969  0.81769745    -0.20400
F3252       F  0.20812698  0.50192074  0.81095827    -0.21600
F3253       F  0.19117823  0.48651061  0.84157130    -0.18800
F3254       F  0.31288418  0.49890106  0.86778090    -0.18900
F3255       F  0.29605147  0.47777090  0.89491030    -0.22700
F3256       F  0.29331310  0.51604291  0.89568633    -0.24300
C3257       C  0.21385153  0.54410388  0.06560476    -0.11100
C3258       C  0.19401774  0.55273060  0.05564475     0.11500
C3259       C  0.18833744  0.54627140  0.03318663    -0.02900
C3260       C  0.20250372  0.53073146  0.02167307    -0.05600
C3261       C  0.22324580  0.52251846  0.03093244    -0.16400
C3262       C  0.22825735  0.52858468  0.05419406     0.02500
C3263       C  0.17904886  0.56778311  0.06959965     0.12400
C3264       C  0.16748535  0.55602787  0.02125057     0.63100
H3265       H  0.19662539  0.52469306  0.00542549     0.12500
C3266       C  0.24796960  0.51971474  0.06864768     0.55200
H3267       H  0.21786084  0.54922706  0.08295836     0.08300
C3268       C  0.16383823  0.55888941  0.08593346    -0.05500
C3269       C  0.15088206  0.57412281  0.09913405    -0.06300
C3270       C  0.15374411  0.59826682  0.09834682    -0.15900
C3271       C  0.16709250  0.60692078  0.07927474    -0.01500
C3272       C  0.17987937  0.59133088  0.06599325    -0.09000
C3273       C  0.16151197  0.53325454  0.08971007     0.65300
H3274       H  0.13866164  0.56655394  0.11030713     0.10700
C3275       C  0.16806372  0.63183796  0.07138523     0.63700
H3276       H  0.19091173  0.59741146  0.05248268     0.08100
F3277       F  0.26010455  0.50209534  0.05904994    -0.19400
F3278       F  0.23957371  0.51169989  0.08928195    -0.15600
F3279       F  0.26278684  0.53752323  0.07304431    -0.19100
F3280       F  0.16986607  0.57937783  0.01882426    -0.22500
F3281       F  0.14811921  0.55150961  0.03388475    -0.24000
F3282       F  0.16449099  0.54690956  0.99964440    -0.17900
F3283       F  0.18700027  0.63608662  0.05790778    -0.20400
F3284       F  0.16926014  0.64677000  0.08940021    -0.21600
F3285       F  0.14920573  0.63680183  0.05826761    -0.18800
F3286       F  0.14456650  0.52796889  0.10531162    -0.18900
F3287       F  0.18173175  0.52454894  0.09800217    -0.22700
F3288       F  0.15627908  0.52252502  0.06936091    -0.24300
C3289       C  0.25562897  0.35656500  0.02552556    -0.11100
C3290       C  0.25743491  0.37062873  0.00624037     0.11500
C3291       C  0.26071501  0.36073926  0.98439704    -0.02900
C3292       C  0.26101889  0.33675955  0.98249826    -0.05600
C3293       C  0.25912314  0.32264617  0.00182119    -0.16400
C3294       C  0.25637328  0.33264728  0.02372771     0.02500
C3295       C  0.25599164  0.39572968  0.00954258     0.12400
C3296       C  0.26436097  0.37550741  0.96335175     0.63100
H3297       H  0.26324270  0.32880839  0.96594419     0.12500
C3298       C  0.25392425  0.31816259  0.04510606     0.55200
H3299       H  0.25360011  0.36458212  0.04207502     0.08300
C3300       C  0.23488668  0.40730050  0.01038139    -0.05500
C3301       C  0.23489621  0.43131023  0.01157361    -0.06300
C3302       C  0.25525598  0.44382486  0.01290635    -0.15900
C3303       C  0.27609528  0.43187018  0.01531672    -0.01500
C3304       C  0.27617250  0.40798983  0.01283191    -0.09000
C3305       C  0.21255126  0.39427609  0.01012575     0.65300
H3306       H  0.21897028  0.44054843  0.01080235     0.10700
C3307       C  0.29795717  0.44378825  0.02198451     0.63700
H3308       H  0.29208675  0.39868798  0.01346850     0.08100
F3309       F  0.23676347  0.30226025  0.04221099    -0.19400
F3310       F  0.24870116  0.33117796  0.06413031    -0.15600
F3311       F  0.27416583  0.30706696  0.04933197    -0.19100
F3312       F  0.28391253  0.38835685  0.96600386    -0.22500
F3313       F  0.24607471  0.38999659  0.96033982    -0.24000
F3314       F  0.26672336  0.36252923  0.94373555    -0.17900
F3315       F  0.29341659  0.46101075  0.03743687    -0.20400
F3316       F  0.30846069  0.45269498  0.00282189    -0.21600
F3317       F  0.31288639  0.42878459  0.03244906    -0.18800
F3318       F  0.19400650  0.40877574  0.01122515    -0.18900
F3319       F  0.21154880  0.37978575  0.02879074    -0.22700
F3320       F  0.21081964  0.38154437  0.99033898    -0.24300
C3321       C  0.03868951  0.86136735  0.00418538    -0.11100
C3322       C  0.02202074  0.84841999  0.99326061     0.11500
C3323       C  0.00389057  0.85949115  0.98191147    -0.02900
C3324       C  0.00307361  0.88355168  0.98205670    -0.05600
C3325       C  0.01983363  0.89681183  0.99305946    -0.16400
C3326       C  0.03846593  0.88534570  0.00384291     0.02500
C3327       C  0.02386702  0.82319589  0.99492167     0.12400
C3328       C  0.98537785  0.84589033  0.97000578     0.63100
H3329       H  0.98902368  0.89215059  0.97377757     0.12500
C3330       C  0.05850791  0.89778970  0.01464902     0.55200
H3331       H  0.05208910  0.85228742  0.01305808     0.08300
C3332       C  0.03928999  0.81055358  0.98131580    -0.05500
C3333       C  0.04049954  0.78676865  0.98442944    -0.06300
C3334       C  0.02716846  0.77547791  0.00081046    -0.15900
C3335       C  0.01335313  0.78847045  0.01586727    -0.01500
C3336       C  0.01163500  0.81212522  0.01227276    -0.09000
C3337       C  0.05458029  0.82214412  0.96383398     0.65300
H3338       H  0.05223593  0.77679586  0.97432522     0.10700
C3339       C  0.00095243  0.77888983  0.03656378     0.63700
H3340       H  0.00095265  0.82222205  0.02350225     0.08100
F3341       F  0.06797818  0.91279460  0.99900364    -0.19400
F3342       F  0.07554487  0.88291592  0.02138879    -0.15600
F3343       F  0.05142770  0.90948716  0.03389716    -0.19100
F3344       F  0.97343214  0.83316437  0.98591865    -0.22500
F3345       F  0.99493556  0.83132845  0.95410170    -0.24000
F3346       F  0.97011690  0.85991109  0.95869945    -0.17900
F3347       F  0.00919917  0.78944921  0.05600866    -0.20400
F3348       F  0.00364590  0.75566656  0.03933973    -0.21600
F3349       F  0.97796349  0.78352110  0.03476344    -0.18800
F3350       F  0.06752253  0.80653445  0.95176972    -0.18900
F3351       F  0.06936021  0.83688121  0.97472450    -0.22700
F3352       F  0.04159150  0.83432281  0.94836713    -0.24300
C3353       C  0.00302259  0.73820874  0.86418319    -0.11100
C3354       C  0.02335461  0.72927515  0.87288796     0.11500
C3355       C  0.04110051  0.72331341  0.85778379    -0.02900
C3356       C  0.03794864  0.72686740  0.83422276    -0.05600
C3357       C  0.01750212  0.73570364  0.82517069    -0.16400
C3358       C  0.99974844  0.74186119  0.84058401     0.02500
C3359       C  0.02552578  0.72663529  0.89805266     0.12400
C3360       C  0.06296501  0.71252850  0.86646981     0.63100
H3361       H  0.05152223  0.72228805  0.82259831     0.12500
C3362       C  0.97736183  0.75203284  0.83255057     0.55200
H3363       H  0.98972340  0.74249204  0.87626145     0.08300
C3364       C  0.03157017  0.74522664  0.91216005    -0.05500
C3365       C  0.03258553  0.74177719  0.93590447    -0.06300
C3366       C  0.02711147  0.72075960  0.94605197    -0.15900
C3367       C  0.02000646  0.70242072  0.93194798    -0.01500
C3368       C  0.01984544  0.70557644  0.90801988    -0.09000
C3369       C  0.03645106  0.76873665  0.90221566     0.65300
H3370       H  0.03709113  0.75579810  0.94686285     0.10700
C3371       C  0.01072128  0.68045577  0.94204285     0.63700
H3372       H  0.01447059  0.69187476  0.89685383     0.08100
F3373       F  0.98132414  0.77285314  0.82206762    -0.19400
F3374       F  0.96243620  0.75574173  0.85049031    -0.15600
F3375       F  0.96687094  0.73733084  0.81739236    -0.19100
F3376       F  0.05812823  0.69157874  0.87624387    -0.22500
F3377       F  0.07304150  0.72634873  0.88268060    -0.24000
F3378       F  0.07855251  0.70912912  0.84904302    -0.17900
F3379       F  0.00376746  0.66533316  0.92527992    -0.20400
F3380       F  0.99210920  0.68547056  0.95555107    -0.21600
F3381       F  0.02710109  0.66970036  0.95507171    -0.18800
F3382       F  0.04180433  0.78440580  0.91902658    -0.18900
F3383       F  0.01755375  0.77677476  0.89072309    -0.22700
F3384       F  0.05454981  0.76761951  0.88717711    -0.24300
C3385       C  0.11030104  0.66693230  0.08625877    -0.11100
C3386       C  0.09734036  0.65544147  0.07004288     0.11500
C3387       C  0.09861082  0.63155282  0.06887402    -0.02900
C3388       C  0.11267646  0.61990666  0.08450579    -0.05600
C3389       C  0.12606838  0.63091367  0.10175973    -0.16400
C3390       C  0.12372585  0.65566782  0.10294765     0.02500
C3391       C  0.08194139  0.66927230  0.05513754     0.12400
C3392       C  0.08560342  0.61847431  0.05067065     0.63100
H3393       H  0.11309759  0.60148733  0.08349738     0.12500
C3394       C  0.13252363  0.67127877  0.12190161     0.55200
H3395       H  0.10862544  0.68532598  0.08622122     0.08300
C3396       C  0.06023717  0.67643951  0.06264638    -0.05500
C3397       C  0.04688007  0.69011274  0.04803330    -0.06300
C3398       C  0.05460607  0.69769725  0.02637528    -0.15900
C3399       C  0.07802057  0.69337926  0.02088080    -0.01500
C3400       C  0.09048948  0.67791526  0.03453270    -0.09000
C3401       C  0.05151179  0.67027726  0.08637712     0.65300
H3402       H  0.03063746  0.69587295  0.05428488     0.10700
C3403       C  0.09164012  0.70514949  0.00204987     0.63700
H3404       H  0.10780515  0.67361213  0.02979421     0.08100
F3405       F  0.12799466  0.69412821  0.11778119    -0.19400
F3406       F  0.15574897  0.66995096  0.12420275    -0.15600
F3407       F  0.12150420  0.66606888  0.14205014    -0.19100
F3408       F  0.09309968  0.62513171  0.02925639    -0.22500
F3409       F  0.06258742  0.62292655  0.05238503    -0.24000
F3410       F  0.08864572  0.59512395  0.05265367    -0.17900
F3411       F  0.08140352  0.72444160  0.99333951    -0.20400
F3412       F  0.09555472  0.68989631  0.98447603    -0.21600
F3413       F  0.11243806  0.71208313  0.01071222    -0.18800
F3414       F  0.02966285  0.67824800  0.09009592    -0.18900
F3415       F  0.06549096  0.67979690  0.10278502    -0.22700
F3416       F  0.05125812  0.64687035  0.08919091    -0.24300
C3417       C  0.06380615  0.19672035  0.56471346    -0.11100
C3418       C  0.06997875  0.17513948  0.55681449     0.11500
C3419       C  0.06124248  0.16752241  0.53565422    -0.02900
C3420       C  0.04807948  0.18264348  0.52229677    -0.05600
C3421       C  0.04263832  0.20509335  0.52942229    -0.16400
C3422       C  0.04911072  0.21119621  0.55231497     0.02500
C3423       C  0.08413865  0.16022574  0.57194786     0.12400
C3424       C  0.06546859  0.14330218  0.52738939     0.63100
H3425       H  0.04103829  0.17625371  0.50656454     0.12500
C3426       C  0.04087303  0.23199655  0.56534880     0.55200
H3427       H  0.06976799  0.20186492  0.58147648     0.08300
C3428       C  0.10798337  0.16157831  0.57248372    -0.05500
C3429       C  0.12009725  0.14604702  0.58623445    -0.06300
C3430       C  0.10969525  0.12993018  0.60122031    -0.15900
C3431       C  0.08527823  0.12707687  0.59804140    -0.01500
C3432       C  0.07328645  0.14374463  0.58529045    -0.09000
C3433       C  0.12058311  0.17998426  0.55919841     0.65300
H3434       H  0.13823981  0.14715405  0.58596388     0.10700
C3435       C  0.07002868  0.10708985  0.60527515     0.63700
H3436       H  0.05486170  0.14309819  0.58449878     0.08100
F3437       F  0.05762564  0.24855190  0.56495353    -0.19400
F3438       F  0.03657931  0.22623835  0.58793110    -0.15600
F3439       F  0.02089033  0.24072104  0.55692684    -0.19100
F3440       F  0.05552392  0.12790866  0.54229130    -0.22500
F3441       F  0.08857402  0.13910097  0.52629283    -0.24000
F3442       F  0.05637597  0.13954236  0.50590135    -0.17900
F3443       F  0.05813084  0.11274059  0.62484047    -0.20400
F3444       F  0.08117558  0.08681912  0.60837038    -0.21600
F3445       F  0.05422917  0.10260583  0.58827669    -0.18800
F3446       F  0.14393001  0.17829435  0.56177137    -0.18900
F3447       F  0.11400360  0.20125595  0.56697989    -0.22700
F3448       F  0.11561708  0.17829845  0.53617170    -0.24300
C3449       C  0.33513571  0.01182497  0.52200299    -0.11100
C3450       C  0.34387997  0.00780942  0.50009075     0.11500
C3451       C  0.32884332  0.00619838  0.48135086    -0.02900
C3452       C  0.30536121  0.00838326  0.48531008    -0.05600
C3453       C  0.29622840  0.01126533  0.50739536    -0.16400
C3454       C  0.31155073  0.01378363  0.52616394     0.02500
C3455       C  0.36889913  0.00490421  0.49736846     0.12400
C3456       C  0.33739930  0.00082282  0.45743616     0.63100
H3457       H  0.29378501  0.00668605  0.47106038     0.12500
C3458       C  0.30366973  0.01788883  0.55058665     0.55200
H3459       H  0.34713976  0.01305743  0.53597167     0.08300
C3460       C  0.38396018  0.02377614  0.49684846    -0.05500
C3461       C  0.40738894  0.01968470  0.49412862    -0.06300
C3462       C  0.41611445  0.99749169  0.49183701    -0.15900
C3463       C  0.40097384  0.97866823  0.49164597    -0.01500
C3464       C  0.37756128  0.98271896  0.49487644    -0.09000
C3465       C  0.37530318  0.04811644  0.49891857     0.65300
H3466       H  0.41921705  0.03386992  0.49407213     0.10700
C3467       C  0.40932444  0.95462221  0.48692720     0.63700
H3468       H  0.36571568  0.96855744  0.49530275     0.08100
F3469       F  0.29394795  0.03924814  0.55235931    -0.19400
F3470       F  0.32153442  0.01709718  0.56597751    -0.15600
F3471       F  0.28820287  0.00143570  0.55712210    -0.19100
F3472       F  0.34454136  0.97836089  0.45660877    -0.22500
F3473       F  0.35538989  0.01493345  0.45169973    -0.24000
F3474       F  0.32057712  0.00379322  0.44115824    -0.17900
F3475       F  0.42263516  0.94703266  0.50484849    -0.20400
F3476       F  0.42200707  0.95444705  0.46698109    -0.21600
F3477       F  0.39145772  0.93945157  0.48426417    -0.18800
F3478       F  0.39266956  0.06393305  0.49658829    -0.18900
F3479       F  0.36535597  0.05129566  0.52008879    -0.22700
F3480       F  0.35939254  0.05240675  0.48206454    -0.24300
C3481       C  0.23250606  0.98143659  0.41999161    -0.11100
C3482       C  0.24523436  0.99796691  0.40821934     0.11500
C3483       C  0.25525525  0.01620763  0.42050653    -0.02900
C3484       C  0.25300352  0.01666963  0.44447662    -0.05600
C3485       C  0.24118181  0.99954856  0.45632572    -0.16400
C3486       C  0.23056217  0.98171788  0.44399281     0.02500
C3487       C  0.24762357  0.99581845  0.38295278     0.12400
C3488       C  0.26821570  0.03507703  0.40832106     0.63100
H3489       H  0.26073727  0.03029124  0.45426859     0.12500
C3490       C  0.21813485  0.96253306  0.45611668     0.55200
H3491       H  0.22470469  0.96784974  0.41020979     0.08300
C3492       C  0.26410508  0.98152954  0.37274232    -0.05500
C3493       C  0.26605768  0.98128610  0.34869604    -0.06300
C3494       C  0.25151278  0.99415469  0.33444877    -0.15900
C3495       C  0.23391821  0.00740526  0.34502063    -0.01500
C3496       C  0.23264855  0.00810150  0.36908819    -0.09000
C3497       C  0.27931519  0.96637154  0.38727209     0.65300
H3498       H  0.27898533  0.97073174  0.34087017     0.10700
C3499       C  0.21610787  0.02060372  0.33149908     0.63700
H3500       H  0.21980148  0.01833072  0.37750140     0.08100
F3501       F  0.23378941  0.94901660  0.46731640    -0.19400
F3502       F  0.20623524  0.94889802  0.44095980    -0.15600
F3503       F  0.20277990  0.97127480  0.47174278    -0.19100
F3504       F  0.25370645  0.04676042  0.39387193    -0.22500
F3505       F  0.28582168  0.02590371  0.39564825    -0.24000
F3506       F  0.27741264  0.05060683  0.42355011    -0.17900
F3507       F  0.20025989  0.03102090  0.34556237    -0.20400
F3508       F  0.20435281  0.00587414  0.31730683    -0.21600
F3509       F  0.22644722  0.03758720  0.31872072    -0.18800
F3510       F  0.29454690  0.95408347  0.37409627    -0.18900
F3511       F  0.26613933  0.95095946  0.39937613    -0.22700
F3512       F  0.29161118  0.97948530  0.40250897    -0.24300
C3513       C  0.26504630  0.91379161  0.50796072    -0.11100
C3514       C  0.24435386  0.90210002  0.50841257     0.11500
C3515       C  0.22422563  0.91370180  0.51465673    -0.02900
C3516       C  0.22510899  0.93757518  0.51721033    -0.05600
C3517       C  0.24583502  0.94961146  0.51580733    -0.16400
C3518       C  0.26634543  0.93706120  0.51305960     0.02500
C3519       C  0.24521554  0.87717872  0.50491860     0.12400
C3520       C  0.20224107  0.90084654  0.51923227     0.63100
H3521       H  0.20949295  0.94697422  0.51981178     0.12500
C3522       C  0.28985516  0.94680871  0.51720118     0.55200
H3523       H  0.28054135  0.90428316  0.50469937     0.08300
C3524       C  0.24391725  0.86723857  0.48295647    -0.05500
C3525       C  0.24667671  0.84346753  0.48101902    -0.06300
C3526       C  0.25192798  0.82979143  0.50010067    -0.15900
C3527       C  0.25406660  0.84011474  0.52201305    -0.01500
C3528       C  0.25034527  0.86368185  0.52395001    -0.09000
C3529       C  0.24045018  0.88179032  0.46168491     0.65300
H3530       H  0.24538309  0.83543467  0.46440997     0.10700
C3531       C  0.26014850  0.82662578  0.54340686     0.63700
H3532       H  0.25204063  0.87204994  0.54036323     0.08100
F3533       F  0.30301067  0.93119838  0.52909380    -0.19400
F3534       F  0.28888842  0.96623701  0.53031634    -0.15600
F3535       F  0.30044208  0.95151001  0.49660884    -0.19100
F3536       F  0.20544726  0.88577755  0.53716569    -0.22500
F3537       F  0.19570407  0.88871332  0.50011969    -0.24000
F3538       F  0.18467751  0.91544471  0.52508470    -0.17900
F3539       F  0.28220787  0.81861090  0.54170528    -0.20400
F3540       F  0.24531333  0.80848095  0.54610892    -0.21600
F3541       F  0.25887776  0.83987384  0.56294827    -0.18800
F3542       F  0.24002362  0.86870643  0.44200431    -0.18900
F3543       F  0.25801763  0.89736665  0.45964949    -0.22700
F3544       F  0.22012281  0.89350484  0.46308546    -0.24300
C3545       C  0.17900477  0.09094322  0.58300450    -0.11100
C3546       C  0.16826907  0.07267789  0.57230654     0.11500
C3547       C  0.14462967  0.07014333  0.57460569    -0.02900
C3548       C  0.13241328  0.08697574  0.58659332    -0.05600
C3549       C  0.14304355  0.10394163  0.60031665    -0.16400
C3550       C  0.16712281  0.10763537  0.59564900     0.02500
C3551       C  0.18267059  0.05707045  0.55835819     0.12400
C3552       C  0.13270568  0.04864286  0.56643238     0.63100
H3553       H  0.11424762  0.08532872  0.58736106     0.12500
C3554       C  0.18230167  0.12809237  0.60158099     0.55200
H3555       H  0.19726262  0.09249896  0.58067297     0.08300
C3556       C  0.18819731  0.06199312  0.53535759    -0.05500
C3557       C  0.20399282  0.04794946  0.52392707    -0.06300
C3558       C  0.21503655  0.02934236  0.53468408    -0.15900
C3559       C  0.21129702  0.02655158  0.55882079    -0.01500
C3560       C  0.19414992  0.03947220  0.56959860    -0.09000
C3561       C  0.17800786  0.08254205  0.52315300     0.65300
H3562       H  0.20853418  0.05239847  0.50663483     0.10700
C3563       C  0.22514743  0.01156344  0.57488844     0.63700
H3564       H  0.19071288  0.03686296  0.58764814     0.08100
F3565       F  0.19635460  0.13312178  0.58318444    -0.19400
F3566       F  0.19600512  0.12261609  0.61996682    -0.15600
F3567       F  0.17111559  0.14804892  0.60594280    -0.19100
F3568       F  0.14198691  0.02992896  0.57744662    -0.22500
F3569       F  0.13540989  0.04597203  0.54314531    -0.24000
F3570       F  0.10963189  0.04903775  0.57120500    -0.17900
F3571       F  0.23095229  0.02393785  0.59417867    -0.20400
F3572       F  0.24519987  0.00393583  0.56559464    -0.21600
F3573       F  0.21218271  0.99301562  0.58160061    -0.18800
F3574       F  0.18535372  0.08417646  0.50071493    -0.18900
F3575       F  0.18423368  0.10237193  0.53428518    -0.22700
F3576       F  0.15457150  0.08097225  0.52294575    -0.24300
C3577       C  0.68181410  0.49043437  0.96179850    -0.11100
C3578       C  0.67348858  0.48713394  0.98408969     0.11500
C3579       C  0.68834119  0.47948807  0.00152065    -0.02900
C3580       C  0.71133981  0.47624497  0.99613374    -0.05600
C3581       C  0.71987196  0.48002360  0.97403903    -0.16400
C3582       C  0.70494844  0.48707562  0.95639257     0.02500
C3583       C  0.64870961  0.48955920  0.98817653     0.12400
C3584       C  0.68009615  0.47502819  0.02579494     0.63100
H3585       H  0.72310427  0.47111253  0.00940090     0.12500
C3586       C  0.71320815  0.49102664  0.93208846     0.55200
H3587       H  0.66990784  0.49544488  0.94859661     0.08300
C3588       C  0.63792400  0.51094585  0.99128110    -0.05500
C3589       C  0.61417027  0.51139403  0.99481149    -0.06300
C3590       C  0.60137012  0.49114919  0.99626856    -0.15900
C3591       C  0.61250434  0.46977273  0.99374816    -0.01500
C3592       C  0.63585747  0.46950814  0.98892013    -0.09000
C3593       C  0.65147040  0.53303740  0.99097491     0.65300
H3594       H  0.60542598  0.52754392  0.99670937     0.10700
C3595       C  0.60001142  0.44719636  0.99626504     0.63700
H3596       H  0.64457430  0.45344216  0.98626290     0.08100
F3597       F  0.69655299  0.50093436  0.91861827    -0.19400
F3598       F  0.71910785  0.47039969  0.92234534    -0.15600
F3599       F  0.73190432  0.50532922  0.93190541    -0.19100
F3600       F  0.66441781  0.45745719  0.02596682    -0.22500
F3601       F  0.67007583  0.49446510  0.03455352    -0.24000
F3602       F  0.69774956  0.46887421  0.04019513    -0.17900
F3603       F  0.61366948  0.42875827  0.99077544    -0.20400
F3604       F  0.58125215  0.44667226  0.98202043    -0.21600
F3605       F  0.59317213  0.44457169  0.01873310    -0.18800
F3606       F  0.63780451  0.55183769  0.99503719    -0.18900
F3607       F  0.66174050  0.53592311  0.96990287    -0.22700
F3608       F  0.66807482  0.53242053  0.00768166    -0.24300
C3609       C  0.78636189  0.49109130  0.11106058    -0.11100
C3610       C  0.76624654  0.48659834  0.09921974     0.11500
C3611       C  0.74566771  0.48360895  0.11141622    -0.02900
C3612       C  0.74593454  0.48597753  0.13536718    -0.05600
C3613       C  0.76607123  0.49091030  0.14739050    -0.16400
C3614       C  0.78675485  0.49348476  0.13492126     0.02500
C3615       C  0.76778233  0.48470608  0.07400093     0.12400
C3616       C  0.72364858  0.47762288  0.09926421     0.63100
H3617       H  0.73032072  0.48375896  0.14495302     0.12500
C3618       C  0.80943925  0.49756069  0.14650988     0.55200
H3619       H  0.80191622  0.49268157  0.10123672     0.08300
C3620       C  0.77091098  0.50413536  0.05996158    -0.05500
C3621       C  0.77451829  0.50089497  0.03649229    -0.06300
C3622       C  0.77380810  0.47913649  0.02642990    -0.15900
C3623       C  0.76972268  0.45970528  0.04045301    -0.01500
C3624       C  0.76768835  0.46289044  0.06421894    -0.09000
C3625       C  0.76976019  0.52821783  0.06956968     0.65300
H3626       H  0.77740271  0.51558910  0.02560660     0.10700
C3627       C  0.76650659  0.43586607  0.03074723     0.63700
H3628       H  0.76583915  0.44829221  0.07545656     0.08100
F3629       F  0.80950672  0.51870589  0.15696933    -0.19400
F3630       F  0.82744703  0.49714845  0.13122067    -0.15600
F3631       F  0.81303732  0.48056193  0.16247269    -0.19100
F3632       F  0.72536059  0.45611999  0.08974791    -0.22500
F3633       F  0.71929619  0.49333378  0.08215923    -0.24000
F3634       F  0.70527787  0.47754542  0.11409454    -0.17900
F3635       F  0.78702441  0.42742171  0.02302787    -0.20400
F3636       F  0.75103276  0.43631049  0.01296609    -0.21600
F3637       F  0.75829834  0.42082779  0.04709472    -0.18800
F3638       F  0.77124341  0.54460207  0.05252731    -0.18900
F3639       F  0.78743017  0.53185690  0.08467158    -0.22700
F3640       F  0.74932031  0.53128458  0.08086556    -0.24300
C3641       C  0.02100241  0.49582546  0.62026472    -0.11100
C3642       C  0.00024183  0.48650247  0.62765765     0.11500
C3643       C  0.98325491  0.48118315  0.61150977    -0.02900
C3644       C  0.98827987  0.48380729  0.58822028    -0.05600
C3645       C  0.00939347  0.49220687  0.58044211    -0.16400
C3646       C  0.02590685  0.49907294  0.59682868     0.02500
C3647       C  0.99646295  0.48319741  0.65254605     0.12400
C3648       C  0.95971146  0.47326767  0.61883419     0.63100
H3649       H  0.97537016  0.47950122  0.57577055     0.12500
C3650       C  0.04856763  0.50951121  0.58994438     0.55200
H3651       H  0.03337346  0.50048510  0.63314610     0.08300
C3652       C  0.00247721  0.46272735  0.66389537    -0.05500
C3653       C  0.99814683  0.46082474  0.68753224    -0.06300
C3654       C  0.99130996  0.47976376  0.70048642    -0.15900
C3655       C  0.98520219  0.50021491  0.68899885    -0.01500
C3656       C  0.98739396  0.50136223  0.66507289    -0.09000
C3657       C  0.01511679  0.44384626  0.65145499     0.65300
H3658       H  0.00193752  0.44509370  0.69642588     0.10700
C3659       C  0.97707831  0.52103837  0.70181166     0.63700
H3660       H  0.98310561  0.51691901  0.65601193     0.08100
F3661       F  0.06239099  0.51349299  0.60868330    -0.19400
F3662       F  0.04496067  0.53021799  0.57914702    -0.15600
F3663       F  0.06002925  0.49493910  0.57536554    -0.19100
F3664       F  0.94945998  0.49005590  0.63181825    -0.22500
F3665       F  0.96122858  0.45352477  0.63167903    -0.24000
F3666       F  0.94582087  0.46881762  0.60025845    -0.17900
F3667       F  0.99541832  0.53118870  0.71237582    -0.20400
F3668       F  0.96092694  0.51481630  0.71784805    -0.21600
F3669       F  0.96731725  0.53699418  0.68734756    -0.18800
F3670       F  0.02003820  0.42568428  0.66577928    -0.18900
F3671       F  0.03545921  0.45230491  0.64307194    -0.22700
F3672       F  0.00232556  0.43573423  0.63342583    -0.24300
C3673       C  0.02505515  0.56387289  0.76287852    -0.11100
C3674       C  0.00512392  0.57600468  0.75834499     0.11500
C3675       C  0.98414827  0.56436298  0.75643611    -0.02900
C3676       C  0.98396743  0.54050226  0.75898446    -0.05600
C3677       C  0.00425711  0.52807103  0.76134183    -0.16400
C3678       C  0.02505977  0.53998356  0.76437465     0.02500
C3679       C  0.00719864  0.60074434  0.75406134     0.12400
C3680       C  0.96241892  0.57689842  0.75017946     0.63100
H3681       H  0.96815320  0.53120073  0.75729478     0.12500
C3682       C  0.04713761  0.52785153  0.76958069     0.55200
H3683       H  0.04084770  0.57330659  0.76429642     0.08300
C3684       C  0.00831518  0.61675921  0.77205601    -0.05500
C3685       C  0.01084116  0.63992875  0.76648191    -0.06300
C3686       C  0.01189581  0.64736937  0.74366274    -0.15900
C3687       C  0.01075670  0.63125975  0.72565677    -0.01500
C3688       C  0.00883440  0.60802936  0.73128906    -0.09000
C3689       C  0.00701080  0.60940679  0.79695395     0.65300
H3690       H  0.01167260  0.65254131  0.77997741     0.10700
C3691       C  0.01173013  0.63839519  0.70070080     0.63700
H3692       H  0.00822162  0.59526657  0.71792256     0.08100
F3693       F  0.05498785  0.51710781  0.75017714    -0.19400
F3694       F  0.06389454  0.54282617  0.77675287    -0.15600
F3695       F  0.04361986  0.51219185  0.78690791    -0.19100
F3696       F  0.96411267  0.58511341  0.72806718    -0.22500
F3697       F  0.95887000  0.59500871  0.76485869    -0.24000
F3698       F  0.94359353  0.56274485  0.75136475    -0.17900
F3699       F  0.01366269  0.61976076  0.68629907    -0.20400
F3700       F  0.03032323  0.65240311  0.69698462    -0.21600
F3701       F  0.99205149  0.64994790  0.69494338    -0.18800
F3702       F  0.00586594  0.62796241  0.81154110    -0.18900
F3703       F  0.02610314  0.59683787  0.80252715    -0.22700
F3704       F  0.98787696  0.59617175  0.80062760    -0.24300
C3705       C  0.08873512  0.47093903  0.72937839    -0.11100
C3706       C  0.10007398  0.47436308  0.75006554     0.11500
C3707       C  0.08767791  0.47410295  0.77081631    -0.02900
C3708       C  0.06399378  0.47052428  0.76996117    -0.05600
C3709       C  0.05235583  0.46848779  0.74907398    -0.16400
C3710       C  0.06514739  0.46742791  0.72850250     0.02500
C3711       C  0.12508029  0.47760191  0.74904887     0.12400
C3712       C  0.09926357  0.47832030  0.79360166     0.63100
H3713       H  0.05415379  0.47057227  0.78561425     0.12500
C3714       C  0.05449459  0.46108268  0.70590561     0.55200
H3715       H  0.09867815  0.47098592  0.71376632     0.08300
C3716       C  0.13995285  0.45885228  0.74624027    -0.05500
C3717       C  0.16332661  0.46312725  0.74369704    -0.06300
C3718       C  0.17217642  0.48542897  0.74339427    -0.15900
C3719       C  0.15726057  0.50422173  0.74619069    -0.01500
C3720       C  0.13379551  0.49992557  0.74882487    -0.09000
C3721       C  0.13110857  0.43445315  0.74551827     0.65300
H3722       H  0.17497107  0.44895926  0.74161017     0.10700
C3723       C  0.16610803  0.52855330  0.74712260     0.63700
H3724       H  0.12196492  0.51398332  0.75054863     0.08100
F3725       F  0.07070523  0.45547341  0.68965852    -0.19400
F3726       F  0.04208332  0.47918679  0.69751896    -0.15600
F3727       F  0.04074609  0.44221121  0.70900532    -0.19100
F3728       F  0.10914395  0.49973461  0.79358115    -0.22500
F3729       F  0.11590663  0.46210115  0.79731489    -0.24000
F3730       F  0.08402575  0.47732581  0.81164893    -0.17900
F3731       F  0.17526630  0.53457693  0.72617892    -0.20400
F3732       F  0.18266988  0.53034268  0.76381905    -0.21600
F3733       F  0.14902461  0.54397025  0.75224802    -0.18800
F3734       F  0.14863521  0.41871253  0.74470509    -0.18900
F3735       F  0.11777777  0.43140664  0.72631881    -0.22700
F3736       F  0.11822017  0.42985280  0.76475880    -0.24300
C3737       C  0.91489656  0.30656969  0.89330239    -0.11100
C3738       C  0.93035823  0.31802091  0.90721224     0.11500
C3739       C  0.93203763  0.34186836  0.90538636    -0.02900
C3740       C  0.91627622  0.35358662  0.89153593    -0.05600
C3741       C  0.89980728  0.34265993  0.87732203    -0.16400
C3742       C  0.90069081  0.31768141  0.87715791     0.02500
C3743       C  0.94552668  0.30399015  0.92225417     0.12400
C3744       C  0.95034566  0.35496985  0.91814861     0.63100
H3745       H  0.91653448  0.37199994  0.89219313     0.12500
C3746       C  0.88743043  0.30045768  0.86262147     0.55200
H3747       H  0.91445438  0.28811992  0.89489953     0.08300
C3748       C  0.93833338  0.29530044  0.94364383    -0.05500
C3749       C  0.95295129  0.28063073  0.95593488    -0.06300
C3750       C  0.97460111  0.27393228  0.94770835    -0.15900
C3751       C  0.98028581  0.28072221  0.92478065    -0.01500
C3752       C  0.96627897  0.29658182  0.91327344    -0.09000
C3753       C  0.91517310  0.30137334  0.95344083     0.65300
H3754       H  0.94677730  0.27359278  0.97178325     0.10700
C3755       C  0.00012019  0.27151264  0.91089881     0.63700
H3756       H  0.97101656  0.30246332  0.89632751     0.08100
F3757       F  0.86876394  0.29287847  0.87483162    -0.19400
F3758       F  0.90091816  0.28163006  0.85791140    -0.15600
F3759       F  0.88063064  0.30810470  0.84165003    -0.19100
F3760       F  0.97154996  0.34774478  0.91094654    -0.22500
F3761       F  0.94836745  0.35120755  0.94139113    -0.24000
F3762       F  0.94894120  0.37825562  0.91428009    -0.17900
F3763       F  0.00755602  0.25060393  0.91853836    -0.20400
F3764       F  0.01782709  0.28702084  0.91134023    -0.21600
F3765       F  0.99361481  0.26844639  0.88835044    -0.18800
F3766       F  0.91142736  0.29121597  0.97450538    -0.18900
F3767       F  0.89818336  0.29421028  0.93879885    -0.22700
F3768       F  0.91364444  0.32469736  0.95629457    -0.24300
C3769       C  0.85010083  0.38734036  0.91678243    -0.11100
C3770       C  0.83887818  0.40511215  0.90575499     0.11500
C3771       C  0.84154529  0.40781574  0.88209736    -0.02900
C3772       C  0.85544244  0.39231269  0.87022750    -0.05600
C3773       C  0.86835954  0.37461720  0.88085567    -0.16400
C3774       C  0.86350833  0.37100995  0.90509630     0.02500
C3775       C  0.82445993  0.42065698  0.91973618     0.12400
C3776       C  0.83082649  0.42789860  0.86961782     0.63100
H3777       H  0.85689744  0.39457770  0.85217652     0.12500
C3778       C  0.87026583  0.35077543  0.92031184     0.55200
H3779       H  0.84771956  0.38612040  0.93512463     0.08300
C3780       C  0.80152261  0.41573218  0.92493993    -0.05500
C3781       C  0.78917287  0.43125162  0.93853345    -0.06300
C3782       C  0.79897252  0.45134238  0.94776716    -0.15900
C3783       C  0.82307333  0.45419220  0.94477611    -0.01500
C3784       C  0.83478216  0.43964064  0.92966554    -0.09000
C3785       C  0.79037749  0.39369801  0.91691907     0.65300
H3786       H  0.77201958  0.42668680  0.94299441     0.10700
C3787       C  0.83820207  0.47118691  0.95719960     0.63700
H3788       H  0.85275186  0.44243785  0.92643948     0.08100
F3789       F  0.85482849  0.34772717  0.93800812    -0.19400
F3790       F  0.89108425  0.35499183  0.93022668    -0.15600
F3791       F  0.87037222  0.33025262  0.90911598    -0.19100
F3792       F  0.84074182  0.44792293  0.87714135    -0.22500
F3793       F  0.80772096  0.42884855  0.87385511    -0.24000
F3794       F  0.83385476  0.42649464  0.84618999    -0.17900
F3795       F  0.85711440  0.45995221  0.96571417    -0.20400
F3796       F  0.82800209  0.48158894  0.97554127    -0.21600
F3797       F  0.84545683  0.48768106  0.94190296    -0.18800
F3798       F  0.76749243  0.39287661  0.92248535    -0.18900
F3799       F  0.80098101  0.37527520  0.92714870    -0.22700
F3800       F  0.79219782  0.39157458  0.89346913    -0.24300
C3801       C  0.93103012  0.38492601  0.82104638    -0.11100
C3802       C  0.93101978  0.40804483  0.82639256     0.11500
C3803       C  0.91789981  0.41558435  0.84509470    -0.02900
C3804       C  0.90460604  0.39953670  0.85730101    -0.05600
C3805       C  0.90237132  0.37613457  0.85075408    -0.16400
C3806       C  0.91848937  0.36851646  0.83356721     0.02500
C3807       C  0.94570286  0.42351485  0.81223324     0.12400
C3808       C  0.91767547  0.44060501  0.85195475     0.63100
H3809       H  0.89600375  0.40565849  0.87231566     0.12500
C3810       C  0.92398840  0.34368012  0.82802318     0.55200
H3811       H  0.94164998  0.37982975  0.80681923     0.08300
C3812       C  0.96964729  0.42395533  0.81442730    -0.05500
C3813       C  0.98250496  0.43752198  0.79918863    -0.06300
C3814       C  0.97253958  0.45065419  0.78146927    -0.15900
C3815       C  0.94811367  0.45180097  0.78108277    -0.01500
C3816       C  0.93546684  0.43710555  0.79546784    -0.09000
C3817       C  0.98165843  0.41014001  0.83288688     0.65300
H3818       H  0.00058790  0.43825716  0.80179792     0.10700
C3819       C  0.93385521  0.46787021  0.76640493     0.63700
H3820       H  0.91708803  0.43660295  0.79396360     0.08100
F3821       F  0.93319032  0.33289781  0.84679884    -0.19400
F3822       F  0.93998133  0.34159785  0.81073878    -0.15600
F3823       F  0.90499854  0.33246513  0.82057661    -0.19100
F3824       F  0.90849667  0.45357356  0.83449584    -0.22500
F3825       F  0.93957134  0.44803273  0.85623890    -0.24000
F3826       F  0.90479727  0.44434906  0.87142405    -0.17900
F3827       F  0.92443177  0.45571823  0.74852175    -0.20400
F3828       F  0.94568421  0.48623758  0.75773669    -0.21600
F3829       F  0.91635929  0.47685382  0.77945937    -0.18800
F3830       F  0.00480807  0.41443988  0.83338060    -0.18900
F3831       F  0.97872365  0.38707563  0.82899393    -0.22700
F3832       F  0.97285332  0.41551602  0.85412266    -0.24300
C3833       C  0.84574430  0.34057869  0.81116302    -0.11100
C3834       C  0.83129197  0.32531201  0.82225828     0.11500
C3835       C  0.83274505  0.32278129  0.84607628    -0.02900
C3836       C  0.84910116  0.33566752  0.85794987    -0.05600
C3837       C  0.86567240  0.34973563  0.84703048    -0.16400
C3838       C  0.86156292  0.35443507  0.82287384     0.02500
C3839       C  0.81568444  0.31141510  0.80796364     0.12400
C3840       C  0.81834500  0.30518776  0.85867442     0.63100
H3841       H  0.84987368  0.33359735  0.87611994     0.12500
C3842       C  0.87109973  0.37366567  0.80766024     0.55200
H3843       H  0.84401797  0.34205990  0.79275151     0.08300
C3844       C  0.79428959  0.31945790  0.80058632    -0.05500
C3845       C  0.78117628  0.30555401  0.78602053    -0.06300
C3846       C  0.78875505  0.28398309  0.77819684    -0.15900
C3847       C  0.81158312  0.27734498  0.78398068    -0.01500
C3848       C  0.82391821  0.29073282  0.79958885    -0.09000
C3849       C  0.78558746  0.34289591  0.80759505     0.65300
H3850       H  0.76525584  0.31227863  0.78001266     0.10700
C3851       C  0.82447716  0.25664374  0.77488939     0.63700
H3852       H  0.84081290  0.28537464  0.80477835     0.08100
F3853       F  0.85476185  0.38068296  0.79207650    -0.19400
F3854       F  0.88942189  0.36581903  0.79516947    -0.15600
F3855       F  0.87697023  0.39320291  0.81907204    -0.19100
F3856       F  0.82346894  0.28360502  0.85065179    -0.22500
F3857       F  0.79549738  0.30931307  0.85519810    -0.24000
F3858       F  0.82227399  0.30543526  0.88200658    -0.17900
F3859       F  0.84641190  0.26306100  0.76903621    -0.20400
F3860       F  0.81513744  0.24692525  0.75567679    -0.21600
F3861       F  0.82573252  0.24026835  0.79189724    -0.18800
F3862       F  0.76391804  0.34706856  0.79934170    -0.18900
F3863       F  0.79989771  0.35961280  0.79910373    -0.22700
F3864       F  0.78481243  0.34467474  0.83112174    -0.24300
C3865       C  0.77063889  0.61864045  0.95863177    -0.11100
C3866       C  0.76935434  0.60600674  0.97877836     0.11500
C3867       C  0.76688415  0.61737650  0.99998342    -0.02900
C3868       C  0.76549916  0.64147238  0.00011916    -0.05600
C3869       C  0.76675239  0.65429667  0.97976757    -0.16400
C3870       C  0.76886462  0.64246864  0.95860508     0.02500
C3871       C  0.77072426  0.58080947  0.97665999     0.12400
C3872       C  0.76600309  0.60405669  0.02224748     0.63100
H3873       H  0.76389144  0.65048654  0.01618162     0.12500
C3874       C  0.76847332  0.65463918  0.93582256     0.55200
H3875       H  0.77293258  0.60949581  0.94270704     0.08300
C3876       C  0.75185787  0.56762159  0.96954638    -0.05500
C3877       C  0.75456260  0.54391903  0.96728123    -0.06300
C3878       C  0.77561499  0.53318137  0.97083140    -0.15900
C3879       C  0.79469077  0.54656522  0.97724190    -0.01500
C3880       C  0.79185394  0.57027677  0.97997806    -0.09000
C3881       C  0.72905254  0.57855516  0.96410283     0.65300
H3882       H  0.74005627  0.53346352  0.96289133     0.10700
C3883       C  0.81775327  0.53599208  0.98176629     0.63700
H3884       H  0.80616766  0.58091765  0.98468114     0.08100
F3885       F  0.75068682  0.66998481  0.93566024    -0.19400
F3886       F  0.76524918  0.63976853  0.91772708    -0.15600
F3887       F  0.78894591  0.66575987  0.93252637    -0.19100
F3888       F  0.78630046  0.59260087  0.02546273    -0.22500
F3889       F  0.74843690  0.58837088  0.02160563    -0.24000
F3890       F  0.76253705  0.61820268  0.04085543    -0.17900
F3891       F  0.82619503  0.52681981  0.96177031    -0.20400
F3892       F  0.81578915  0.51914093  0.99822136    -0.21600
F3893       F  0.83335128  0.55190012  0.98952394    -0.18800
F3894       F  0.71250986  0.56239775  0.95942132    -0.18900
F3895       F  0.73119112  0.59248078  0.94511590    -0.22700
F3896       F  0.72168442  0.59147277  0.98241506    -0.24300
C3897       C  0.63926458  0.72843932  0.98390264    -0.11100
C3898       C  0.63003124  0.75023879  0.98029111     0.11500
C3899       C  0.64465914  0.76915308  0.97717870    -0.02900
C3900       C  0.66825112  0.76546855  0.97741718    -0.05600
C3901       C  0.67767389  0.74367310  0.98093504    -0.16400
C3902       C  0.66295699  0.72469216  0.98405446     0.02500
C3903       C  0.60493870  0.75291244  0.98097675     0.12400
C3904       C  0.63543368  0.79319650  0.97401175     0.63100
H3905       H  0.67965344  0.77984435  0.97526304     0.12500
C3906       C  0.67201003  0.70055728  0.98665610     0.55200
H3907       H  0.62763890  0.71433501  0.98659568     0.08300
C3908       C  0.59097261  0.74823629  0.96185740    -0.05500
C3909       C  0.56731893  0.75110516  0.96405638    -0.06300
C3910       C  0.55725993  0.75743154  0.98490387    -0.15900
C3911       C  0.57141929  0.76321848  0.00363761    -0.01500
C3912       C  0.59506435  0.76036265  0.00143980    -0.09000
C3913       C  0.60093812  0.73994292  0.93938428     0.65300
H3914       H  0.55634243  0.74763618  0.94964359     0.10700
C3915       C  0.56198651  0.77418703  0.02507493     0.63700
H3916       H  0.60618005  0.76408472  0.01571401     0.08100
F3917       F  0.65466484  0.68455074  0.98674724    -0.19400
F3918       F  0.68373182  0.69847449  0.00702325    -0.15600
F3919       F  0.68639060  0.69553732  0.96861681    -0.19100
F3920       F  0.62428200  0.80004408  0.99364071    -0.22500
F3921       F  0.62038576  0.79382346  0.95589562    -0.24000
F3922       F  0.65260051  0.80878349  0.96956474    -0.17900
F3923       F  0.54879891  0.75887647  0.03717389    -0.20400
F3924       F  0.54908827  0.79286817  0.01892054    -0.21600
F3925       F  0.57908305  0.78178101  0.03944568    -0.18800
F3926       F  0.58423514  0.73603947  0.92318214    -0.18900
F3927       F  0.61252212  0.71970717  0.94278774    -0.22700
F3928       F  0.61579789  0.75605212  0.93069116    -0.24300
C3929       C  0.88673616  0.73506842  0.01015626    -0.11100
C3930       C  0.90023529  0.72893703  0.99146159     0.11500
C3931       C  0.89011276  0.72568368  0.96978109    -0.02900
C3932       C  0.86675205  0.73040577  0.96721313    -0.05600
C3933       C  0.85327741  0.73756388  0.98576688    -0.16400
C3934       C  0.86331133  0.73921001  0.00785398     0.02500
C3935       C  0.92510909  0.72682239  0.99518994     0.12400
C3936       C  0.90385106  0.71671703  0.94971039     0.63100
H3937       H  0.85877241  0.72836044  0.95066654     0.12500
C3938       C  0.84944769  0.74448857  0.02917721     0.55200
H3939       H  0.89490669  0.73687584  0.02664787     0.08300
C3940       C  0.93936268  0.74619776  0.99505914    -0.05500
C3941       C  0.96269537  0.74317541  0.99887361    -0.06300
C3942       C  0.97248917  0.72153700  0.00255094    -0.15900
C3943       C  0.95776982  0.70217455  0.00418912    -0.01500
C3944       C  0.93426381  0.70533732  0.00027166    -0.09000
C3945       C  0.92997087  0.77000742  0.99071947     0.65300
H3946       H  0.97361874  0.75800454  0.99870135     0.10700
C3947       C  0.96593337  0.67841716  0.01072216     0.63700
H3948       H  0.92262865  0.69103760  0.00136431     0.08100
F3949       F  0.84207183  0.76688499  0.02855418    -0.19400
F3950       F  0.86205091  0.74161673  0.04895523    -0.15600
F3951       F  0.83091000  0.72996978  0.03050469    -0.19100
F3952       F  0.91168570  0.69503245  0.95473379    -0.22500
F3953       F  0.92224089  0.73080708  0.94542720    -0.24000
F3954       F  0.89095974  0.71546289  0.92995682    -0.17900
F3955       F  0.97128384  0.67800520  0.03372644    -0.20400
F3956       F  0.98466359  0.67216531  0.99793951    -0.21600
F3957       F  0.94929656  0.66206996  0.00714401    -0.18800
F3958       F  0.94698940  0.78634653  0.99012433    -0.18900
F3959       F  0.91493214  0.77584362  0.00791371    -0.22700
F3960       F  0.91874881  0.77062358  0.96997397    -0.24300
C3961       C  0.77055551  0.77459625  0.10417676    -0.11100
C3962       C  0.76386019  0.75633443  0.11812010     0.11500
C3963       C  0.75668287  0.73570553  0.10775636    -0.02900
C3964       C  0.75772715  0.73366072  0.08371522    -0.05600
C3965       C  0.76537292  0.75160641  0.06960544    -0.16400
C3966       C  0.77160383  0.77272871  0.08012879     0.02500
C3967       C  0.76514368  0.75912282  0.14355914     0.12400
C3968       C  0.74754661  0.71605156  0.12202652     0.63100
H3969       H  0.75250942  0.71785005  0.07573348     0.12500
C3970       C  0.77926094  0.79347832  0.06641740     0.55200
H3971       H  0.77538072  0.79037275  0.11248008     0.08300
C3972       C  0.78607642  0.75804206  0.15554683    -0.05500
C3973       C  0.78589802  0.75932333  0.17963229    -0.06300
C3974       C  0.76556590  0.76104311  0.19215251    -0.15900
C3975       C  0.74479110  0.76381095  0.18002809    -0.01500
C3976       C  0.74501311  0.76280508  0.15589464    -0.09000
C3977       C  0.80849829  0.75509787  0.14297926     0.65300
H3978       H  0.80172878  0.75825818  0.18899716     0.10700
C3979       C  0.72260132  0.76885351  0.19223623     0.63700
H3980       H  0.72931561  0.76452518  0.14638488     0.08100
F3981       F  0.80031787  0.78929354  0.05672421    -0.19400
F3982       F  0.78128692  0.81274654  0.07994372    -0.15600
F3983       F  0.76359375  0.79837089  0.04946878    -0.19100
F3984       F  0.72705469  0.72230760  0.13178142    -0.22500
F3985       F  0.76279347  0.71048253  0.13912624    -0.24000
F3986       F  0.74386368  0.69671141  0.10898090    -0.17900
F3987       F  0.70569362  0.77540371  0.17713001    -0.20400
F3988       F  0.72579809  0.78649366  0.20755879    -0.21600
F3989       F  0.71503857  0.74967519  0.20364408    -0.18800
F3990       F  0.82657571  0.75258944  0.15792014    -0.18900
F3991       F  0.81272682  0.77404187  0.12951070    -0.22700
F3992       F  0.80761628  0.73590010  0.12929137    -0.24300
C3993       C  0.50463124  0.31621694  0.01710559    -0.11100
C3994       C  0.52114849  0.32777552  0.00426198     0.11500
C3995       C  0.53868127  0.31530471  0.99334045    -0.02900
C3996       C  0.53824289  0.29128725  0.99460739    -0.05600
C3997       C  0.52102595  0.27967750  0.00653236    -0.16400
C3998       C  0.50407209  0.29225316  0.01818425     0.02500
C3999       C  0.51943956  0.35301387  0.00261182     0.12400
C4000       C  0.55791646  0.32732414  0.98081152     0.63100
H4001       H  0.55113861  0.28131321  0.98595090     0.12500
C4002       C  0.48525326  0.28041929  0.03132778     0.55200
H4003       H  0.49168055  0.32620045  0.02566695     0.08300
C4004       C  0.50546686  0.36392953  0.98624423    -0.05500
C4005       C  0.50487193  0.38798514  0.98561350    -0.06300
C4006       C  0.51690008  0.40138719  0.00151747    -0.15900
C4007       C  0.52967165  0.39002760  0.01903268    -0.01500
C4008       C  0.53104610  0.36605292  0.01875952    -0.09000
C4009       C  0.49088665  0.35010609  0.96990040     0.65300
H4010       H  0.49472960  0.39648066  0.97272768     0.10700
C4011       C  0.54139358  0.40257792  0.03853117     0.63700
H4012       H  0.54105729  0.35707864  0.03144535     0.08100
F4013       F  0.47138181  0.26877779  0.01630206    -0.19400
F4014       F  0.47190446  0.29575508  0.04331668    -0.15600
F4015       F  0.49459221  0.26528292  0.04683564    -0.19100
F4016       F  0.57120264  0.33896115  0.99641566    -0.22500
F4017       F  0.54938261  0.34268749  0.96504627    -0.24000
F4018       F  0.57164917  0.31203991  0.96919919    -0.17900
F4019       F  0.54963188  0.38776200  0.05503132    -0.20400
F4020       F  0.52616971  0.41702768  0.04923446    -0.21600
F4021       F  0.55964613  0.41491257  0.03021300    -0.18800
F4022       F  0.47877598  0.36393750  0.95507129    -0.18900
F4023       F  0.47545258  0.33715162  0.98219253    -0.22700
F4024       F  0.50438796  0.33572683  0.95701190    -0.24300
C4025       C  0.42822349  0.21752628  0.01036901    -0.11100
C4026       C  0.41921251  0.22374987  0.98910988     0.11500
C4027       C  0.43400280  0.22925177  0.97090035    -0.02900
C4028       C  0.45756476  0.22752352  0.97446261    -0.05600
C4029       C  0.46692710  0.22175348  0.99589808    -0.16400
C4030       C  0.45183863  0.21636257  0.01429381     0.02500
C4031       C  0.39413190  0.22565250  0.98699705     0.12400
C4032       C  0.42494837  0.23760572  0.94803002     0.63100
H4033       H  0.46895016  0.23120045  0.96038520     0.12500
C4034       C  0.45976905  0.20915090  0.03797707     0.55200
H4035       H  0.41637543  0.21357181  0.02401485     0.08300
C4036       C  0.37992091  0.20632598  0.98422614    -0.05500
C4037       C  0.35621972  0.20956113  0.98376118    -0.06300
C4038       C  0.34645976  0.23132339  0.98604765    -0.15900
C4039       C  0.36078870  0.25071085  0.98818487    -0.01500
C4040       C  0.38444274  0.24739870  0.98903153    -0.09000
C4041       C  0.38968668  0.18245578  0.98157960     0.65300
H4042       H  0.34503532  0.19496389  0.98209238     0.10700
C4043       C  0.35137655  0.27484676  0.98908436     0.63700
H4044       H  0.39567593  0.26183852  0.99156426     0.08100
F4045       F  0.46625691  0.18648190  0.03752936    -0.19400
F4046       F  0.44256598  0.21122363  0.05403468    -0.15600
F4047       F  0.47764866  0.22253053  0.04532037    -0.19100
F4048       F  0.41402527  0.25829379  0.95088570    -0.22500
F4049       F  0.40973231  0.22196303  0.93919007    -0.24000
F4050       F  0.44218681  0.24073876  0.93218429    -0.17900
F4051       F  0.34101297  0.27863596  0.00996157    -0.20400
F4052       F  0.33573277  0.27801583  0.97170654    -0.21600
F4053       F  0.36835517  0.29102021  0.98635743    -0.18800
F4054       F  0.37276196  0.16609421  0.97988628    -0.18900
F4055       F  0.40301319  0.17693663  0.00022469    -0.22700
F4056       F  0.40281559  0.18145688  0.96199916    -0.24300
C4057       C  0.58709236  0.15803746  0.08612739    -0.11100
C4058       C  0.59090120  0.15494727  0.06284981     0.11500
C4059       C  0.60728132  0.13897871  0.05570147    -0.02900
C4060       C  0.61912846  0.12627019  0.07238468    -0.05600
C4061       C  0.61685335  0.13005533  0.09642828    -0.16400
C4062       C  0.59914522  0.14595724  0.10318657     0.02500
C4063       C  0.57669455  0.16846210  0.04657170     0.12400
C4064       C  0.61285010  0.13595642  0.03048317     0.63100
H4065       H  0.63032711  0.11330751  0.06608737     0.12500
C4066       C  0.59123070  0.15031491  0.12775280     0.55200
H4067       H  0.57390266  0.17006221  0.09076767     0.08300
C4068       C  0.55420249  0.16208228  0.04110369    -0.05500
C4069       C  0.54116240  0.17660853  0.02708820    -0.06300
C4070       C  0.54912775  0.19806883  0.01918557    -0.15900
C4071       C  0.57274319  0.20314644  0.02305425    -0.01500
C4072       C  0.58557930  0.18864893  0.03740940    -0.09000
C4073       C  0.54380407  0.14012983  0.05041158     0.65300
H4074       H  0.52465689  0.17059565  0.02211982     0.10700
C4075       C  0.58605351  0.22314977  0.01301719     0.63700
H4076       H  0.60300703  0.19313629  0.04151763     0.08100
F4077       F  0.57813888  0.13221558  0.13526011    -0.19400
F4078       F  0.57775501  0.16963770  0.12938206    -0.15600
F4079       F  0.60919058  0.15385201  0.14235761    -0.19100
F4080       F  0.62277834  0.15572241  0.02222737    -0.22500
F4081       F  0.59331963  0.13155648  0.01812765    -0.24000
F4082       F  0.62784104  0.11811455  0.02680185    -0.17900
F4083       F  0.59157231  0.23816220  0.03036591    -0.20400
F4084       F  0.57490030  0.23504513  0.99611188    -0.21600
F4085       F  0.60601955  0.21505837  0.00342892    -0.18800
F4086       F  0.52203690  0.13648628  0.04217074    -0.18900
F4087       F  0.54251731  0.14114114  0.07398119    -0.22700
F4088       F  0.55699748  0.12162934  0.04424134    -0.24300
C4089       C  0.42992836  0.51353979  0.72101261    -0.11100
C4090       C  0.42027415  0.50758202  0.74210484     0.11500
C4091       C  0.43440586  0.50414836  0.76134749    -0.02900
C4092       C  0.45796216  0.50626977  0.75853353    -0.05600
C4093       C  0.46791623  0.51130057  0.73724872    -0.16400
C4094       C  0.45359554  0.51572119  0.71810286     0.02500
C4095       C  0.39541213  0.50405821  0.74283756     0.12400
C4096       C  0.42589600  0.49754781  0.78500603     0.63100
H4097       H  0.46881332  0.50319314  0.77318684     0.12500
C4098       C  0.46260915  0.52261476  0.69465542     0.55200
H4099       H  0.41857166  0.51636108  0.70671246     0.08300
C4100       C  0.38028454  0.52220357  0.74722309    -0.05500
C4101       C  0.35683887  0.51767003  0.74738077    -0.06300
C4102       C  0.34818065  0.49563637  0.74331985    -0.15900
C4103       C  0.36353396  0.47735785  0.73917721    -0.01500
C4104       C  0.38701764  0.48203261  0.73889422    -0.09000
C4105       C  0.38904085  0.54611225  0.75201258     0.65300
H4106       H  0.34501077  0.53148424  0.75049339     0.10700
C4107       C  0.35544759  0.45296223  0.73574798     0.63700
H4108       H  0.39913790  0.46851011  0.73559876     0.08100
F4109       F  0.47024790  0.54490460  0.69536862    -0.19400
F4110       F  0.44588038  0.52143303  0.67805543    -0.15600
F4111       F  0.48010788  0.50849407  0.68781773    -0.19100
F4112       F  0.43389103  0.47600533  0.79040189    -0.22500
F4113       F  0.40247502  0.49731248  0.78688587    -0.24000
F4114       F  0.43422694  0.51291314  0.80086597    -0.17900
F4115       F  0.34416948  0.45109914  0.71510636    -0.20400
F4116       F  0.34100117  0.44673975  0.75338232    -0.21600
F4117       F  0.37338672  0.43765766  0.73550498    -0.18800
F4118       F  0.37149522  0.56136632  0.75588676    -0.18900
F4119       F  0.40155376  0.55394385  0.73356461    -0.22700
F4120       F  0.40275767  0.54579537  0.77119819    -0.24300
C4121       C  0.52738000  0.47762157  0.82440948    -0.11100
C4122       C  0.51596048  0.49510466  0.83604368     0.11500
C4123       C  0.50751025  0.51403958  0.82350535    -0.02900
C4124       C  0.51048035  0.51453088  0.79955104    -0.05600
C4125       C  0.52150267  0.49678879  0.78788212    -0.16400
C4126       C  0.52996922  0.47793050  0.80045600     0.02500
C4127       C  0.51468697  0.49374123  0.86153423     0.12400
C4128       C  0.49556446  0.53368987  0.83537972     0.63100
H4129       H  0.50402295  0.52874161  0.78962452     0.12500
C4130       C  0.54102979  0.45786328  0.78862378     0.55200
H4131       H  0.53398890  0.46347529  0.83432476     0.08300
C4132       C  0.49807888  0.48066454  0.87324547    -0.05500
C4133       C  0.49824168  0.48033577  0.89741750    -0.06300
C4134       C  0.51503183  0.49177430  0.91026904    -0.15900
C4135       C  0.53268049  0.50356748  0.89814326    -0.01500
C4136       C  0.53178304  0.50458981  0.87406716    -0.09000
C4137       C  0.48058266  0.46672775  0.86022630     0.65300
H4138       H  0.48518767  0.47091102  0.90645947     0.10700
C4139       C  0.55297239  0.51452608  0.91001775     0.63700
H4140       H  0.54471521  0.51378946  0.86458928     0.08100
F4141       F  0.55082800  0.44285172  0.80404517    -0.19400
F4142       F  0.55787630  0.46541850  0.77392355    -0.15600
F4143       F  0.52463575  0.44615006  0.77651751    -0.19100
F4144       F  0.51035486  0.54418927  0.85040074    -0.22500
F4145       F  0.47692445  0.52569903  0.84737727    -0.24000
F4146       F  0.48802455  0.54995861  0.81994571    -0.17900
F4147       F  0.56335040  0.49878142  0.92425560    -0.20400
F4148       F  0.54597389  0.53326447  0.92252319    -0.21600
F4149       F  0.56923812  0.52201600  0.89457814    -0.18800
F4150       F  0.46571144  0.45553045  0.87480087    -0.18900
F4151       F  0.49147223  0.45045424  0.84710063    -0.22700
F4152       F  0.46798066  0.48074267  0.84606387    -0.24300
C4153       C  0.58450823  0.54811257  0.69880820    -0.11100
C4154       C  0.57445903  0.55807765  0.67950952     0.11500
C4155       C  0.55169905  0.55257136  0.67422046    -0.02900
C4156       C  0.53932724  0.53846775  0.68935099    -0.05600
C4157       C  0.54869001  0.52942713  0.70981234    -0.16400
C4158       C  0.57258232  0.53286682  0.71333364     0.02500
C4159       C  0.58915260  0.57175224  0.66362648     0.12400
C4160       C  0.54070165  0.56122161  0.65235763     0.63100
H4161       H  0.52214563  0.53389486  0.68471999     0.12500
C4162       C  0.58669181  0.51989542  0.73083511     0.55200
H4163       H  0.60232615  0.55167948  0.70194321     0.08300
C4164       C  0.59087135  0.59572993  0.66413092    -0.05500
C4165       C  0.60577970  0.60664991  0.64879501    -0.06300
C4166       C  0.61958657  0.59510953  0.63245523    -0.15900
C4167       C  0.61762986  0.57018754  0.63223878    -0.01500
C4168       C  0.60254068  0.55967708  0.64808586    -0.09000
C4169       C  0.57767038  0.61092532  0.68046436     0.65300
H4170       H  0.60684799  0.62506615  0.64995305     0.10700
C4171       C  0.63182516  0.55299023  0.61844579     0.63700
H4172       H  0.60120854  0.54126545  0.64903881     0.08100
F4173       F  0.60898060  0.51768319  0.72345579    -0.19400
F4174       F  0.57853897  0.49802449  0.73419718    -0.15600
F4175       F  0.58698453  0.53167745  0.75127111    -0.19100
F4176       F  0.55285765  0.55355876  0.63363700    -0.22500
F4177       F  0.54048791  0.58480573  0.65223667    -0.24000
F4178       F  0.51848385  0.55370396  0.65013512    -0.17900
F4179       F  0.65298539  0.55047709  0.62830482    -0.20400
F4180       F  0.63403201  0.55866458  0.59585066    -0.21600
F4181       F  0.62197066  0.53148982  0.61831152    -0.18800
F4182       F  0.56428993  0.62579573  0.66794027    -0.18900
F4183       F  0.59277735  0.62356443  0.69340669    -0.22700
F4184       F  0.56372558  0.59897787  0.69527528    -0.24300
C4185       C  0.47187911  0.23171965  0.61364177    -0.11100
C4186       C  0.48989830  0.23950224  0.60007539     0.11500
C4187       C  0.51078754  0.24549138  0.61048273    -0.02900
C4188       C  0.51281457  0.24377531  0.63442844    -0.05600
C4189       C  0.49474833  0.23612438  0.64828007    -0.16400
C4190       C  0.47385693  0.22967324  0.63759319     0.02500
C4191       C  0.48622178  0.24234602  0.57504225     0.12400
C4192       C  0.53083551  0.25372061  0.59624261     0.63100
H4193       H  0.52864031  0.24857485  0.64255648     0.12500
C4194       C  0.45334824  0.22127984  0.65112592     0.55200
H4195       H  0.45606176  0.22747577  0.60519058     0.08300
C4196       C  0.48851727  0.22407895  0.55948240    -0.05500
C4197       C  0.48861095  0.22896835  0.53593136    -0.06300
C4198       C  0.48563747  0.25127784  0.52745041    -0.15900
C4199       C  0.48041606  0.26910361  0.54316483    -0.01500
C4200       C  0.48114169  0.26421085  0.56677382    -0.09000
C4201       C  0.49074320  0.19958351  0.56771142     0.65300
H4202       H  0.49140119  0.21528022  0.52387414     0.10700
C4203       C  0.47399586  0.29312125  0.53566957     0.63700
H4204       H  0.47818715  0.27758592  0.57918220     0.08100
F4205       F  0.45836205  0.20065236  0.66150641    -0.19400
F4206       F  0.43453882  0.21784452  0.63733101    -0.15600
F4207       F  0.44742755  0.23720890  0.66752052    -0.19100
F4208       F  0.52533958  0.27390151  0.58528936    -0.22500
F4209       F  0.53635397  0.23746477  0.58005889    -0.24000
F4210       F  0.54991670  0.25763656  0.60950705    -0.17900
F4211       F  0.45252027  0.29283783  0.52609970    -0.20400
F4212       F  0.48949361  0.30157267  0.52003436    -0.21600
F4213       F  0.47338097  0.30811598  0.55393040    -0.18800
F4214       F  0.49392171  0.18454779  0.54974459    -0.18900
F4215       F  0.47109766  0.19327721  0.57910726    -0.22700
F4216       F  0.50903786  0.19749128  0.58238283    -0.24300
C4217       C  0.62768980  0.23288541  0.74463191    -0.11100
C4218       C  0.63547371  0.25548904  0.74600394     0.11500
C4219       C  0.61978895  0.27370951  0.74415111    -0.02900
C4220       C  0.59657441  0.26855707  0.74124316    -0.05600
C4221       C  0.58864269  0.24592118  0.74036724    -0.16400
C4222       C  0.60441257  0.22770792  0.74216167     0.02500
C4223       C  0.66037123  0.25942074  0.74804577     0.12400
C4224       C  0.62756787  0.29844683  0.74507382     0.63100
H4225       H  0.58429749  0.28226920  0.73987952     0.12500
C4226       C  0.59682805  0.20296940  0.74108675     0.55200
H4227       H  0.64010545  0.21927268  0.74569405     0.08300
C4228       C  0.67200428  0.25799156  0.76918584    -0.05500
C4229       C  0.69583339  0.26073991  0.76935995    -0.06300
C4230       C  0.70832455  0.26328988  0.74900257    -0.15900
C4231       C  0.69643916  0.26586387  0.72806637    -0.01500
C4232       C  0.67263327  0.26369105  0.72796727    -0.09000
C4233       C  0.65941890  0.25259567  0.79124135     0.65300
H4234       H  0.70504814  0.25964266  0.78532344     0.10700
C4235       C  0.70855333  0.27160477  0.70595964     0.63700
H4236       H  0.66336703  0.26475592  0.71199706     0.08100
F4237       F  0.58446873  0.19756905  0.76047864    -0.19400
F4238       F  0.61514303  0.18817527  0.73986157    -0.15600
F4239       F  0.58347327  0.19952990  0.72194139    -0.19100
F4240       F  0.64140624  0.30318933  0.72655042    -0.22500
F4241       F  0.63959504  0.30241279  0.76496036    -0.24000
F4242       F  0.60938816  0.31344710  0.74455773    -0.17900
F4243       F  0.71899761  0.25235041  0.69739025    -0.20400
F4244       F  0.72445330  0.28851750  0.70986676    -0.21600
F4245       F  0.69363390  0.27963519  0.68951886    -0.18800
F4246       F  0.67377444  0.25293699  0.80998114    -0.18900
F4247       F  0.64984240  0.23109027  0.78986206    -0.22700
F4248       F  0.64237663  0.26839751  0.79491331    -0.24300
C4249       C  0.51695071  0.36381767  0.71123972    -0.11100
C4250       C  0.51146193  0.37697604  0.73034262     0.11500
C4251       C  0.50118619  0.36650858  0.74959355    -0.02900
C4252       C  0.49788194  0.34265832  0.74944878    -0.05600
C4253       C  0.50385419  0.32917672  0.73044360    -0.16400
C4254       C  0.51308467  0.34013931  0.71066647     0.02500
C4255       C  0.51421578  0.40208830  0.72835763     0.12400
C4256       C  0.49342803  0.38056660  0.76998125     0.63100
H4257       H  0.49062802  0.33435284  0.76431449     0.12500
C4258       C  0.51810599  0.32744122  0.68855452     0.55200
H4259       H  0.52404679  0.37249426  0.69649184     0.08300
C4260       C  0.53519270  0.41337471  0.73207747    -0.05500
C4261       C  0.53598361  0.43732299  0.72993960    -0.06300
C4262       C  0.51648392  0.45008776  0.72463991    -0.15900
C4263       C  0.49606202  0.43845220  0.71893684    -0.01500
C4264       C  0.49535367  0.41458852  0.72100264    -0.09000
C4265       C  0.55649540  0.40025722  0.73850201     0.65300
H4266       H  0.55162096  0.44640680  0.73349508     0.10700
C4267       C  0.47537072  0.45076140  0.70969749     0.63700
H4268       H  0.47984726  0.40536172  0.71716863     0.08100
F4269       F  0.53681765  0.31343047  0.69133567    -0.19400
F4270       F  0.52286680  0.34224405  0.67068529    -0.15600
F4271       F  0.49939310  0.31456221  0.68229823    -0.19100
F4272       F  0.47639922  0.39541551  0.76333329    -0.22500
F4273       F  0.51143233  0.39303551  0.77860478    -0.24000
F4274       F  0.48496348  0.36696786  0.78741114    -0.17900
F4275       F  0.45911480  0.43571309  0.70155289    -0.20400
F4276       F  0.48182708  0.46467227  0.69176702    -0.21600
F4277       F  0.46538470  0.46356387  0.72667028    -0.18800
F4278       F  0.57470310  0.41469644  0.74257052    -0.18900
F4279       F  0.56242496  0.38571721  0.72090357    -0.22700
F4280       F  0.55268073  0.38759427  0.75809297    -0.24300
C4281       C  0.49168484  0.25460731  0.86477659    -0.11100
C4282       C  0.51312671  0.24866668  0.87341641     0.11500
C4283       C  0.53113792  0.24373777  0.85820328    -0.02900
C4284       C  0.52699219  0.24492723  0.83459263    -0.05600
C4285       C  0.50529383  0.24993657  0.82567123    -0.16400
C4286       C  0.48730498  0.25520424  0.84105520     0.02500
C4287       C  0.51555571  0.24483965  0.89835573     0.12400
C4288       C  0.55438543  0.23627231  0.86689171     0.63100
H4289       H  0.54068720  0.24112443  0.82281347     0.12500
C4290       C  0.46340460  0.26039226  0.83273858     0.55200
H4291       H  0.47816349  0.25796741  0.87689972     0.08300
C4292       C  0.52135383  0.26246029  0.91378327    -0.05500
C4293       C  0.52443288  0.25684303  0.93697738    -0.06300
C4294       C  0.52167485  0.23439859  0.94501976    -0.15900
C4295       C  0.51540717  0.21686400  0.92956480    -0.01500
C4296       C  0.51236846  0.22253222  0.90642425    -0.09000
C4297       C  0.52322832  0.28714675  0.90601924     0.65300
H4298       H  0.52842470  0.27010042  0.94920419     0.10700
C4299       C  0.51157044  0.19235827  0.93726758     0.63700
H4300       H  0.50775873  0.20945826  0.89419803     0.08100
F4301       F  0.46342387  0.28058997  0.82046444    -0.19400
F4302       F  0.44821456  0.26276393  0.85068335    -0.15600
F4303       F  0.45570781  0.24280518  0.81901071    -0.19100
F4304       F  0.55244680  0.21582824  0.87856903    -0.22500
F4305       F  0.56325204  0.25253272  0.88145611    -0.24000
F4306       F  0.56973822  0.23316042  0.84921426    -0.17900
F4307       F  0.50256674  0.17906185  0.91994915    -0.20400
F4308       F  0.49655764  0.19167139  0.95545771    -0.21600
F4309       F  0.53201170  0.18272181  0.94373347    -0.18800
F4310       F  0.53102636  0.30117548  0.92336399    -0.18900
F4311       F  0.50205352  0.29484130  0.89927121    -0.22700
F4312       F  0.53811419  0.28909406  0.88782559    -0.24300
C4313       C  0.48095478  0.11925675  0.76632036    -0.11100
C4314       C  0.49276555  0.10472644  0.75148881     0.11500
C4315       C  0.50719253  0.11418821  0.73447723    -0.02900
C4316       C  0.50932036  0.13809922  0.73303747    -0.05600
C4317       C  0.49755778  0.15260193  0.74796693    -0.16400
C4318       C  0.48306619  0.14311017  0.76494272     0.02500
C4319       C  0.48969820  0.07965992  0.75421190     0.12400
C4320       C  0.52024684  0.09912676  0.71792201     0.63100
H4321       H  0.52004901  0.14573428  0.72003284     0.12500
C4322       C  0.46930073  0.15699004  0.78195794     0.55200
H4323       H  0.46975953  0.11183550  0.77907888     0.08300
C4324       C  0.50028745  0.06728972  0.77206479    -0.05500
C4325       C  0.49751145  0.04344692  0.77280552    -0.06300
C4326       C  0.48678570  0.03154283  0.75510260    -0.15900
C4327       C  0.47459359  0.04406275  0.73828561    -0.01500
C4328       C  0.47593769  0.06803955  0.73850348    -0.09000
C4329       C  0.51536924  0.07902848  0.78954737     0.65300
H4330       H  0.50498004  0.03374498  0.78656365     0.10700
C4331       C  0.45934741  0.03346045  0.72029953     0.63700
H4332       H  0.46682605  0.07779855  0.72567684     0.08100
F4333       F  0.47686758  0.15219671  0.80382550    -0.19400
F4334       F  0.44662577  0.15084077  0.78038790    -0.15600
F4335       F  0.47080845  0.18027666  0.77855704    -0.19100
F4336       F  0.50520611  0.08742501  0.70410215    -0.22500
F4337       F  0.53340313  0.08363055  0.72988737    -0.24000
F4338       F  0.53453044  0.11174737  0.70392580    -0.17900
F4339       F  0.43715947  0.04021118  0.72426791    -0.20400
F4340       F  0.45993176  0.00996130  0.72030876    -0.21600
F4341       F  0.46575041  0.04106873  0.69884148    -0.18800
F4342       F  0.52604939  0.06348785  0.80379557    -0.18900
F4343       F  0.50249365  0.09346243  0.80298003    -0.22700
F4344       F  0.53206829  0.09154554  0.77851776    -0.24300
C4345       C  0.23007949  0.21930091  0.82476752    -0.11100
C4346       C  0.23641970  0.24054717  0.83356963     0.11500
C4347       C  0.24028571  0.25905933  0.81856861    -0.02900
C4348       C  0.23752946  0.25553607  0.79495267    -0.05600
C4349       C  0.23209567  0.23396954  0.78582214    -0.16400
C4350       C  0.22768594  0.21547031  0.80115309     0.02500
C4351       C  0.24014379  0.24209358  0.85859726     0.12400
C4352       C  0.24813373  0.28214093  0.82736940     0.63100
H4353       H  0.24042617  0.26960340  0.78327390     0.12500
C4354       C  0.22029315  0.19174526  0.79351643     0.55200
H4355       H  0.22714187  0.20554132  0.83681842     0.08300
C4356       C  0.22186964  0.24392878  0.87424711    -0.05500
C4357       C  0.22656363  0.24241199  0.89779472    -0.06300
C4358       C  0.24876584  0.23887143  0.90601103    -0.15900
C4359       C  0.26713041  0.23796075  0.89027880    -0.01500
C4360       C  0.26238305  0.23928706  0.86674140    -0.09000
C4361       C  0.19752650  0.24712626  0.86608524     0.65300
H4362       H  0.21276511  0.24342929  0.91003289     0.10700
C4363       C  0.29166158  0.23615816  0.89817871     0.63700
H4364       H  0.27601478  0.23765137  0.85437451     0.08100
F4365       F  0.19757917  0.19224648  0.78746501    -0.19400
F4366       F  0.22260964  0.17583066  0.81089668    -0.15600
F4367       F  0.23321929  0.18410742  0.77534315    -0.19100
F4368       F  0.26933519  0.28003018  0.83732324    -0.22500
F4369       F  0.23299718  0.29036352  0.84343735    -0.24000
F4370       F  0.24975585  0.29809842  0.80997358    -0.17900
F4371       F  0.29558696  0.21474053  0.90730448    -0.20400
F4372       F  0.29606125  0.25259783  0.91454970    -0.21600
F4373       F  0.30680609  0.23946918  0.88032886    -0.18800
F4374       F  0.18255592  0.24982313  0.88416383    -0.18900
F4375       F  0.19066668  0.22831610  0.85365094    -0.22700
F4376       F  0.19600860  0.26631039  0.85239551    -0.24300
C4377       C  0.20173823  0.18593094  0.66880814    -0.11100
C4378       C  0.18053116  0.17912565  0.67718594     0.11500
C4379       C  0.17378443  0.18594327  0.69927116    -0.02900
C4380       C  0.18844620  0.20003400  0.71200799    -0.05600
C4381       C  0.21055147  0.20620587  0.70441275    -0.16400
C4382       C  0.21659423  0.20000633  0.68142094     0.02500
C4383       C  0.16624452  0.16397536  0.66266776     0.12400
C4384       C  0.15150144  0.17767749  0.70972039     0.63100
H4385       H  0.18200428  0.20649370  0.72788620     0.12500
C4386       C  0.23846251  0.20674977  0.66908787     0.55200
H4387       H  0.20666822  0.18015496  0.65190556     0.08300
C4388       C  0.15059931  0.17246503  0.64662212    -0.05500
C4389       C  0.13712399  0.15688903  0.63425334    -0.06300
C4390       C  0.14077002  0.13276943  0.63468081    -0.15900
C4391       C  0.15732942  0.12456512  0.65123166    -0.01500
C4392       C  0.16918930  0.14052694  0.66482087    -0.09000
C4393       C  0.14911454  0.19791929  0.64165720     0.65300
H4394       H  0.12401754  0.16412534  0.62377765     0.10700
C4395       C  0.16236980  0.09950725  0.65681142     0.63700
H4396       H  0.18116003  0.13485700  0.67768935     0.08100
F4397       F  0.24835492  0.22628985  0.67756111    -0.19400
F4398       F  0.23399616  0.21093578  0.64621351    -0.15600
F4399       F  0.25383965  0.18894675  0.67040740    -0.19100
F4400       F  0.15155643  0.15411405  0.71103495    -0.22500
F4401       F  0.13330888  0.18454761  0.69648577    -0.24000
F4402       F  0.14823931  0.18607625  0.73159549    -0.17900
F4403       F  0.18236217  0.09706414  0.66909607    -0.20400
F4404       F  0.16519286  0.08647224  0.63753393    -0.21600
F4405       F  0.14514036  0.09066996  0.67022319    -0.18800
F4406       F  0.13300821  0.20284353  0.62512660    -0.18900
F4407       F  0.16994857  0.20560173  0.63377950    -0.22700
F4408       F  0.14350105  0.20981920  0.66121976    -0.24300
C4409       C  0.26699060  0.31694383  0.72294214    -0.11100
C4410       C  0.24825880  0.32991479  0.72985961     0.11500
C4411       C  0.22714304  0.31910470  0.73417793    -0.02900
C4412       C  0.22602963  0.29513690  0.73305845    -0.05600
C4413       C  0.24518306  0.28201693  0.72739885    -0.16400
C4414       C  0.26585290  0.29305588  0.72160406     0.02500
C4415       C  0.25165358  0.35476934  0.73293880     0.12400
C4416       C  0.20598295  0.33283425  0.73983890     0.63100
H4417       H  0.21026917  0.28637254  0.73698504     0.12500
C4418       C  0.28676226  0.27988383  0.71430974     0.55200
H4419       H  0.28281308  0.32572973  0.71930061     0.08300
C4420       C  0.26142429  0.36379222  0.75314061    -0.05500
C4421       C  0.26456763  0.38755198  0.75479345    -0.06300
C4422       C  0.25850626  0.40215937  0.73680614    -0.15900
C4423       C  0.24850895  0.39312711  0.71674416    -0.01500
C4424       C  0.24557074  0.36939418  0.71500805    -0.09000
C4425       C  0.26845794  0.34832377  0.77277307     0.65300
H4426       H  0.27184301  0.39493313  0.77009637     0.10700
C4427       C  0.24009856  0.40865988  0.69773101     0.63700
H4428       H  0.23828076  0.36202255  0.69970811     0.08100
F4429       F  0.29631034  0.26946269  0.73315947    -0.19400
F4430       F  0.30301605  0.29404329  0.70465180    -0.15600
F4431       F  0.28096067  0.26366988  0.69819718    -0.19100
F4432       F  0.20037584  0.34655627  0.72143784    -0.22500
F4433       F  0.20982217  0.34643087  0.75873233    -0.24000
F4434       F  0.18754049  0.31888523  0.74456173    -0.17900
F4435       F  0.22965663  0.39651774  0.68038421    -0.20400
F4436       F  0.25815406  0.42056857  0.68835990    -0.21600
F4437       F  0.22443324  0.42397136  0.70645697    -0.18800
F4438       F  0.27584007  0.36065701  0.79151507    -0.18900
F4439       F  0.28599270  0.33421713  0.76585778    -0.22700
F4440       F  0.25022852  0.33506435  0.77961893    -0.24300
C4441       C  0.32730424  0.22573193  0.75461252    -0.11100
C4442       C  0.33872665  0.22779330  0.73369064     0.11500
C4443       C  0.32667411  0.22381885  0.71308117    -0.02900
C4444       C  0.30296090  0.22011335  0.71416362    -0.05600
C4445       C  0.29123976  0.21969958  0.73513604    -0.16400
C4446       C  0.30394408  0.22085576  0.75571446     0.02500
C4447       C  0.36380868  0.23129458  0.73437834     0.12400
C4448       C  0.33870210  0.22388508  0.69008337     0.63100
H4449       H  0.29321234  0.21876852  0.69853150     0.12500
C4450       C  0.29376684  0.21608932  0.77903355     0.55200
H4451       H  0.33694850  0.22739152  0.77031890     0.08300
C4452       C  0.37399061  0.25311960  0.73655369    -0.05500
C4453       C  0.39793207  0.25465817  0.73800491    -0.06300
C4454       C  0.41179924  0.23510924  0.73779630    -0.15900
C4455       C  0.40130035  0.21318025  0.73682670    -0.01500
C4456       C  0.37749426  0.21179915  0.73501720    -0.09000
C4457       C  0.35960878  0.27460293  0.73760759     0.65300
H4458       H  0.40604230  0.27121980  0.73908262     0.10700
C4459       C  0.41483234  0.19113329  0.73861106     0.63700
H4460       H  0.36919968  0.19530481  0.73414363     0.08100
F4461       F  0.28974496  0.23639637  0.79031623    -0.19400
F4462       F  0.30867445  0.20311089  0.79194196    -0.15600
F4463       F  0.27380978  0.20385728  0.77734595    -0.19100
F4464       F  0.35567959  0.20758272  0.68992111    -0.22500
F4465       F  0.34825649  0.24504598  0.68599368    -0.24000
F4466       F  0.32391147  0.21904479  0.67233380    -0.17900
F4467       F  0.42953803  0.19232032  0.75698978    -0.20400
F4468       F  0.42703944  0.18754882  0.71872734    -0.21600
F4469       F  0.40087344  0.17236156  0.74195176    -0.18800
F4470       F  0.37284487  0.29403816  0.73971757    -0.18900
F4471       F  0.34515651  0.27355794  0.75623663    -0.22700
F4472       F  0.34682850  0.27668818  0.71793202    -0.24300
C4473       C  0.01650201  0.97212331  0.86749311    -0.11100
C4474       C  0.01931391  0.99411884  0.85836552     0.11500
C4475       C  0.01907063  0.01332979  0.87293631    -0.02900
C4476       C  0.01673483  0.00976144  0.89651995    -0.05600
C4477       C  0.01405666  0.98779685  0.90584510    -0.16400
C4478       C  0.01381330  0.96855631  0.89117616     0.02500
C4479       C  0.02054031  0.99684540  0.83326467     0.12400
C4480       C  0.02102800  0.03750791  0.86357580     0.63100
H4481       H  0.01677363  0.02426619  0.90797972     0.12500
C4482       C  0.01117857  0.94445882  0.90042171     0.55200
H4483       H  0.01618967  0.95779940  0.85581653     0.08300
C4484       C  0.04114753  0.99504100  0.82089941    -0.05500
C4485       C  0.04072450  0.99875638  0.79709932    -0.06300
C4486       C  0.02023354  0.00303071  0.78550042    -0.15900
C4487       C  0.99995950  0.00606630  0.79824666    -0.01500
C4488       C  0.00039584  0.00232850  0.82188788    -0.09000
C4489       C  0.06311075  0.98809493  0.83262740     0.65300
H4490       H  0.05616167  0.99695513  0.78716871     0.10700
C4491       C  0.97806741  0.01415107  0.78739525     0.63700
H4492       H  0.98488040  0.00379317  0.83180697     0.08100
F4493       F  0.01372184  0.92823360  0.88343568    -0.19400
F4494       F  0.98974925  0.94183577  0.90983780    -0.15600
F4495       F  0.02745260  0.94029812  0.91698360    -0.19100
F4496       F  0.00256581  0.04233364  0.84979223    -0.22500
F4497       F  0.04073965  0.03978160  0.85087925    -0.24000
F4498       F  0.02157323  0.05359576  0.88086753    -0.17900
F4499       F  0.96701896  0.99595254  0.77741234    -0.20400
F4500       F  0.98271936  0.03078172  0.77126873    -0.21600
F4501       F  0.96356346  0.02364946  0.80343435    -0.18800
F4502       F  0.08144108  0.98872243  0.81775998    -0.18900
F4503       F  0.06101168  0.96607441  0.84091359    -0.22700
F4504       F  0.06776332  0.00259765  0.85063625    -0.24300
C4505       C  0.93098876  0.97663838  0.72918509    -0.11100
C4506       C  0.91995596  0.99749856  0.73241665     0.11500
C4507       C  0.93282407  0.01790361  0.73321358    -0.02900
C4508       C  0.95660710  0.01659493  0.73054817    -0.05600
C4509       C  0.96785921  0.99554982  0.72815413    -0.16400
C4510       C  0.95467233  0.97528139  0.72642552     0.02500
C4511       C  0.89481014  0.99718951  0.73473001     0.12400
C4512       C  0.92152893  0.04082515  0.73738674     0.63100
H4513       H  0.96673566  0.03200755  0.73126095     0.12500
C4514       C  0.96500989  0.95251689  0.72002475     0.55200
H4515       H  0.92073145  0.96127486  0.72874828     0.08300
C4516       C  0.88039478  0.99411246  0.71560620    -0.05500
C4517       C  0.85677426  0.99325039  0.71918516    -0.06300
C4518       C  0.84719884  0.99578143  0.74105153    -0.15900
C4519       C  0.86168139  0.99877323  0.76021008    -0.01500
C4520       C  0.88537090  0.99897910  0.75668005    -0.09000
C4521       C  0.88988879  0.99187835  0.69151966     0.65300
H4522       H  0.84549851  0.99088107  0.70476914     0.10700
C4523       C  0.85232773  0.00144834  0.78427603     0.63700
H4524       H  0.89681961  0.00077755  0.77105912     0.08100
F4525       F  0.94859851  0.93679337  0.71368521    -0.19400
F4526       F  0.97670594  0.94345760  0.73832192    -0.15600
F4527       F  0.97938421  0.95551536  0.70158606    -0.19100
F4528       F  0.91166425  0.04102307  0.75884812    -0.22500
F4529       F  0.90493076  0.04468178  0.72111212    -0.24000
F4530       F  0.93698113  0.05863747  0.73634398    -0.17900
F4531       F  0.86937743  0.00066939  0.80056034    -0.20400
F4532       F  0.83709721  0.98405844  0.78904427    -0.21600
F4533       F  0.84145902  0.02227966  0.78623479    -0.18800
F4534       F  0.87280004  0.99111828  0.67526606    -0.18900
F4535       F  0.90243789  0.97203324  0.68967240    -0.22700
F4536       F  0.90370318  0.01034382  0.68654882    -0.24300
C4537       C  0.02772003  0.90710694  0.75385582    -0.11100
C4538       C  0.02108147  0.89600104  0.73379829     0.11500
C4539       C  0.01759107  0.90870205  0.71353097    -0.02900
C4540       C  0.02132097  0.93238807  0.71400701    -0.05600
C4541       C  0.02644492  0.94378570  0.73444234    -0.16400
C4542       C  0.03065660  0.93088225  0.75454410     0.02500
C4543       C  0.01867578  0.87086971  0.73443317     0.12400
C4544       C  0.00893338  0.89742617  0.69187379     0.63100
H4545       H  0.01897256  0.94242040  0.69863387     0.12500
C4546       C  0.03909998  0.94180615  0.77636832     0.55200
H4547       H  0.03040477  0.89691391  0.76909049     0.08300
C4548       C  0.03778536  0.85640468  0.73242008    -0.05500
C4549       C  0.03432457  0.83271298  0.73278120    -0.06300
C4550       C  0.01258987  0.82313276  0.73578432    -0.15900
C4551       C  0.99345622  0.83771463  0.73806483    -0.01500
C4552       C  0.99692620  0.86149221  0.73739080    -0.09000
C4553       C  0.06174016  0.86599494  0.73027812     0.65300
H4554       H  0.04876445  0.82140822  0.73115818     0.10700
C4555       C  0.96948444  0.82838049  0.74061832     0.63700
H4556       H  0.98267387  0.87305173  0.73923557     0.08100
F4557       F  0.04715445  0.92573067  0.79174246    -0.19400
F4558       F  0.02155779  0.95340841  0.78680065    -0.15600
F4559       F  0.05676904  0.95659068  0.77140408    -0.19100
F4560       F  0.98725029  0.88905753  0.69563077    -0.22500
F4561       F  0.02304674  0.87961980  0.68567315    -0.24000
F4562       F  0.00794799  0.91264093  0.67376252    -0.17900
F4563       F  0.96716924  0.81785836  0.76167286    -0.20400
F4564       F  0.96506245  0.81277936  0.72345210    -0.21600
F4565       F  0.95330099  0.84547990  0.73920347    -0.18800
F4566       F  0.07770598  0.84897289  0.72690962    -0.18900
F4567       F  0.06742294  0.87752215  0.75006640    -0.22700
F4568       F  0.06301722  0.88090114  0.71196589    -0.24300
C4569       C  0.05695757  0.04079796  0.66800630    -0.11100
C4570       C  0.07587682  0.05158934  0.67762611     0.11500
C4571       C  0.08178662  0.04672719  0.70053853    -0.02900
C4572       C  0.06782281  0.03184399  0.71331012    -0.05600
C4573       C  0.04783779  0.02188277  0.70425440    -0.16400
C4574       C  0.04386012  0.02471859  0.68023095     0.02500
C4575       C  0.08938614  0.06756331  0.66304034     0.12400
C4576       C  0.10257005  0.05750806  0.71160840     0.63100
H4577       H  0.07282887  0.02777247  0.73057233     0.12500
C4578       C  0.02703293  0.01099338  0.66602082     0.55200
H4579       H  0.05293969  0.04433344  0.65025336     0.08300
C4580       C  0.10552485  0.05983279  0.64707080    -0.05500
C4581       C  0.11785425  0.07601035  0.63427110    -0.06300
C4582       C  0.11370244  0.10002825  0.63510585    -0.15900
C4583       C  0.09779443  0.10751489  0.65254403    -0.01500
C4584       C  0.08590168  0.09095777  0.66557692    -0.09000
C4585       C  0.10953766  0.03444075  0.64325338     0.65300
H4586       H  0.13111705  0.06927783  0.62374565     0.10700
C4587       C  0.09369003  0.13236205  0.65949186     0.63700
H4588       H  0.07375715  0.09611255  0.67849454     0.08100
F4589       F  0.03682365  0.00533526  0.64523963    -0.19400
F4590       F  0.00792657  0.02407201  0.66176364    -0.15600
F4591       F  0.02070051  0.99069425  0.67618111    -0.19100
F4592       F  0.09964828  0.08086302  0.71303622    -0.22500
F4593       F  0.12179997  0.05297809  0.69879444    -0.24000
F4594       F  0.10622599  0.04923334  0.73349062    -0.17900
F4595       F  0.07457329  0.13464574  0.67316616    -0.20400
F4596       F  0.09017049  0.14633977  0.64093242    -0.21600
F4597       F  0.11193424  0.14017655  0.67209555    -0.18800
F4598       F  0.12680611  0.03040633  0.62766396    -0.18900
F4599       F  0.08995969  0.02446821  0.63485038    -0.22700
F4600       F  0.11538525  0.02392911  0.66357840    -0.24300
C4601       C  0.74526758  0.82761840  0.70053388    -0.11100
C4602       C  0.74741359  0.83595960  0.72286119     0.11500
C4603       C  0.74843938  0.82061903  0.74145656    -0.02900
C4604       C  0.74761711  0.79719492  0.73693183    -0.05600
C4605       C  0.74677744  0.78848745  0.71453110    -0.16400
C4606       C  0.74538248  0.80402596  0.69583292     0.02500
C4607       C  0.74961741  0.86086724  0.72633221     0.12400
C4608       C  0.75097232  0.82890245  0.76596542     0.63100
H4609       H  0.74810321  0.78539291  0.75115056     0.12500
C4610       C  0.74456528  0.79637839  0.67104641     0.55200
H4611       H  0.74402306  0.83988742  0.68671374     0.08300
C4612       C  0.77061631  0.87221930  0.72321507    -0.05500
C4613       C  0.77200048  0.89552800  0.72855776    -0.06300
C4614       C  0.75312025  0.90773465  0.73675595    -0.15900
C4615       C  0.73189255  0.89631590  0.73942379    -0.01500
C4616       C  0.73058476  0.87297902  0.73398771    -0.09000
C4617       C  0.79137258  0.85980698  0.71400350     0.65300
H4618       H  0.78795387  0.90449246  0.72622614     0.10700
C4619       C  0.71062518  0.90844772  0.74779411     0.63700
H4620       H  0.71473395  0.86377050  0.73607372     0.08100
F4621       F  0.74930470  0.81422704  0.65621376    -0.19400
F4622       F  0.72309209  0.78832319  0.66593317    -0.15600
F4623       F  0.76041936  0.77949695  0.66703076    -0.19100
F4624       F  0.73180124  0.84093132  0.77237844    -0.22500
F4625       F  0.76980447  0.84292720  0.76781548    -0.24000
F4626       F  0.75374102  0.81097755  0.78118246    -0.17900
F4627       F  0.69148521  0.89475228  0.74616669    -0.20400
F4628       F  0.70672251  0.92785816  0.73486978    -0.21600
F4629       F  0.71333400  0.91433342  0.77050453    -0.18800
F4630       F  0.81058243  0.87347552  0.71435134    -0.18900
F4631       F  0.78746567  0.85332682  0.69163787    -0.22700
F4632       F  0.79582555  0.84059252  0.72701202    -0.24300
C4633       C  0.84233802  0.74448260  0.70970098    -0.11100
C4634       C  0.85078367  0.72799992  0.72483794     0.11500
C4635       C  0.83569192  0.71242249  0.73548884    -0.02900
C4636       C  0.81233331  0.71384546  0.73035713    -0.05600
C4637       C  0.80382688  0.73074100  0.71563806    -0.16400
C4638       C  0.81900886  0.74610964  0.70485137     0.02500
C4639       C  0.87561709  0.72777895  0.72918356     0.12400
C4640       C  0.84418656  0.69491421  0.75265233     0.63100
H4641       H  0.80037010  0.70231277  0.73846156     0.12500
C4642       C  0.81061267  0.76394596  0.68810426     0.55200
H4643       H  0.85426349  0.75623911  0.70186100     0.08300
C4644       C  0.89082967  0.71674134  0.71419132    -0.05500
C4645       C  0.91421682  0.71813629  0.71868039    -0.06300
C4646       C  0.92311044  0.73105716  0.73699463    -0.15900
C4647       C  0.90761743  0.74240913  0.75189382    -0.01500
C4648       C  0.88406483  0.74030914  0.74772229    -0.09000
C4649       C  0.88248624  0.70450317  0.69285231     0.65300
H4650       H  0.92581646  0.70975089  0.70705172     0.10700
C4651       C  0.91549434  0.75684076  0.77193448     0.63700
H4652       H  0.87190168  0.74895068  0.75859779     0.08100
F4653       F  0.82836690  0.77574243  0.67793391    -0.19400
F4654       F  0.79704264  0.77955557  0.69933680    -0.15600
F4655       F  0.79825192  0.75341753  0.67102010    -0.19100
F4656       F  0.85364373  0.70594643  0.77122165    -0.22500
F4657       F  0.86051582  0.68114263  0.74276234    -0.24000
F4658       F  0.82678357  0.68103076  0.76052071    -0.17900
F4659       F  0.89741427  0.76487957  0.78479280    -0.20400
F4660       F  0.92748164  0.77557931  0.76399988    -0.21600
F4661       F  0.92913029  0.74394286  0.78622050    -0.18800
F4662       F  0.89997164  0.69344294  0.68152035    -0.18900
F4663       F  0.87302538  0.72017799  0.67795894    -0.22700
F4664       F  0.86625837  0.68837058  0.69847306    -0.24300
C4665       C  0.73657197  0.74482661  0.80668441    -0.11100
C4666       C  0.75835655  0.74252348  0.81622792     0.11500
C4667       C  0.77696984  0.73705353  0.80186538    -0.02900
C4668       C  0.77301503  0.73405753  0.77836751    -0.05600
C4669       C  0.75129161  0.73643324  0.76869734    -0.16400
C4670       C  0.73272861  0.74243949  0.78299515     0.02500
C4671       C  0.76073822  0.74378487  0.84156201     0.12400
C4672       C  0.80099298  0.73472379  0.81118171     0.63100
H4673       H  0.78708809  0.73006294  0.76719432     0.12500
C4674       C  0.70913985  0.74697008  0.77346584     0.55200
H4675       H  0.72249132  0.74841430  0.81807259     0.08300
C4676       C  0.76065066  0.76459974  0.85387528    -0.05500
C4677       C  0.76271489  0.76391673  0.87795847    -0.06300
C4678       C  0.76458898  0.74315646  0.88997249    -0.15900
C4679       C  0.76387972  0.72240904  0.87742611    -0.01500
C4680       C  0.76202971  0.72315371  0.85349931    -0.09000
C4681       C  0.75814395  0.78733132  0.84164188     0.65300
H4682       H  0.76271066  0.77964770  0.88764755     0.10700
C4683       C  0.76353339  0.69949657  0.88925934     0.63700
H4684       H  0.76131008  0.70746424  0.84375234     0.08100
F4685       F  0.69482099  0.75617366  0.78984377    -0.19400
F4686       F  0.69958608  0.72681293  0.76593227    -0.15600
F4687       F  0.71033167  0.76227244  0.75548215    -0.19100
F4688       F  0.80211495  0.71679055  0.82650895    -0.22500
F4689       F  0.80725980  0.75464404  0.82212095    -0.24000
F4690       F  0.81666042  0.73059488  0.79398749    -0.17900
F4691       F  0.75995093  0.68163565  0.87421082    -0.20400
F4692       F  0.74602593  0.69938555  0.90500527    -0.21600
F4693       F  0.78412392  0.69585745  0.89996481    -0.18800
F4694       F  0.75958145  0.80553707  0.85662409    -0.18900
F4695       F  0.73722802  0.78838217  0.83093512    -0.22700
F4696       F  0.77511948  0.78975740  0.82544907    -0.24300
C4697       C  0.71541359  0.68219784  0.65840807    -0.11100
C4698       C  0.69301775  0.67871959  0.66591686     0.11500
C4699       C  0.68525219  0.69146063  0.68505531    -0.02900
C4700       C  0.70093508  0.70512450  0.69717671    -0.05600
C4701       C  0.72351514  0.70855619  0.68964986    -0.16400
C4702       C  0.72951428  0.69908433  0.66795175     0.02500
C4703       C  0.67867576  0.66150710  0.65347342     0.12400
C4704       C  0.66072143  0.69194399  0.69321257     0.63100
H4705       H  0.69504622  0.71400539  0.71229289     0.12500
C4706       C  0.74859033  0.70772764  0.65257970     0.55200
H4707       H  0.72159032  0.67257993  0.64390494     0.08300
C4708       C  0.67428849  0.66278049  0.62976514    -0.05500
C4709       C  0.66216286  0.64496626  0.61926938    -0.06300
C4710       C  0.65109997  0.62713152  0.63147389    -0.15900
C4711       C  0.65796837  0.62470130  0.65524874    -0.01500
C4712       C  0.67060098  0.64254340  0.66557167    -0.09000
C4713       C  0.68099799  0.68340554  0.61539302     0.65300
H4714       H  0.65990790  0.64587006  0.60108221     0.10700
C4715       C  0.65548811  0.60377249  0.67080381     0.63700
H4716       H  0.67493370  0.64145409  0.68356478     0.08100
F4717       F  0.74093874  0.70907028  0.63022759    -0.19400
F4718       F  0.76672176  0.69272882  0.65320909    -0.15600
F4719       F  0.75578210  0.72939726  0.65833584    -0.19100
F4720       F  0.65933709  0.68184714  0.71455713    -0.22500
F4721       F  0.64583885  0.68099022  0.67863153    -0.24000
F4722       F  0.65363491  0.71439698  0.69494969    -0.17900
F4723       F  0.67509686  0.60080363  0.68361826    -0.20400
F4724       F  0.65266213  0.58357767  0.65944037    -0.21600
F4725       F  0.63766950  0.60701674  0.68584261    -0.18800
F4726       F  0.66786417  0.68496078  0.59580870    -0.18900
F4727       F  0.70348000  0.68169250  0.60876380    -0.22700
F4728       F  0.67785533  0.70336999  0.62758833    -0.24300
C4729       C  0.84300533  0.00185180  0.02515418    -0.11100
C4730       C  0.85357280  0.99802814  0.00401036     0.11500
C4731       C  0.84034859  0.99841215  0.98389225    -0.02900
C4732       C  0.81689187  0.00282736  0.98564573    -0.05600
C4733       C  0.80585002  0.00644032  0.00676994    -0.16400
C4734       C  0.81939603  0.00620309  0.02706971     0.02500
C4735       C  0.87873996  0.99467087  0.00319852     0.12400
C4736       C  0.85093165  0.99354463  0.96066209     0.63100
H4737       H  0.80691852  0.00290362  0.97022630     0.12500
C4738       C  0.80980889  0.01090377  0.05076981     0.55200
H4739       H  0.85365483  0.00175925  0.04024868     0.08300
C4740       C  0.89385091  0.01345628  0.00256518    -0.05500
C4741       C  0.91723540  0.00932771  0.99977035    -0.06300
C4742       C  0.92618919  0.98712478  0.99824358    -0.15900
C4743       C  0.91115827  0.96820716  0.00012302    -0.01500
C4744       C  0.88755423  0.97238308  0.00236035    -0.09000
C4745       C  0.88533706  0.03780380  0.00512112     0.65300
H4746       H  0.92887847  0.02363285  0.99882986     0.10700
C4747       C  0.91991060  0.94384011  0.00051746     0.63700
H4748       H  0.87569873  0.95825598  0.00329581     0.08100
F4749       F  0.80568708  0.03399825  0.05307685    -0.19400
F4750       F  0.82489880  0.00459149  0.06780108    -0.15600
F4751       F  0.78997295  0.99888208  0.05448614    -0.19100
F4752       F  0.85898852  0.97138697  0.96024101    -0.22500
F4753       F  0.86878071  0.00836081  0.95651295    -0.24000
F4754       F  0.83539709  0.99599929  0.94305959    -0.17900
F4755       F  0.93679101  0.94163822  0.01683828    -0.20400
F4756       F  0.92860779  0.93819479  0.97930704    -0.21600
F4757       F  0.90283582  0.92840135  0.00581298    -0.18800
F4758       F  0.90282626  0.05355620  0.00340104    -0.18900
F4759       F  0.87526368  0.04041590  0.02631686    -0.22700
F4760       F  0.86957939  0.04272666  0.98831076    -0.24300
C4761       C  0.73412010  0.99855149  0.91486011    -0.11100
C4762       C  0.75414588  0.00578626  0.90422187     0.11500
C4763       C  0.77153411  0.01621015  0.91719474    -0.02900
C4764       C  0.76902949  0.01711981  0.94106714    -0.05600
C4765       C  0.74958792  0.00849591  0.95198604    -0.16400
C4766       C  0.73128330  0.00004073  0.93861892     0.02500
C4767       C  0.75583830  0.00289993  0.87923160     0.12400
C4768       C  0.79239047  0.02649964  0.90581505     0.63100
H4769       H  0.78209799  0.02493003  0.95141400     0.12500
C4770       C  0.70854810  0.99346760  0.94891374     0.55200
H4771       H  0.72065368  0.99177910  0.90421451     0.08300
C4772       C  0.76218626  0.98183115  0.86926965    -0.05500
C4773       C  0.76297641  0.98022633  0.84532396    -0.06300
C4774       C  0.75759392  0.99896950  0.83148504    -0.15900
C4775       C  0.75047012  0.01978726  0.84147813    -0.01500
C4776       C  0.74964233  0.02134521  0.86536966    -0.09000
C4777       C  0.76780969  0.96117112  0.88390188     0.65300
H4778       H  0.76792042  0.96438950  0.83718883     0.10700
C4779       C  0.74340409  0.04009646  0.82696457     0.63700
H4780       H  0.74418931  0.03701278  0.87350614     0.08100
F4781       F  0.69388540  0.98436372  0.93280676    -0.19400
F4782       F  0.69839476  0.01274342  0.95769098    -0.15600
F4783       F  0.71136332  0.97745405  0.96599241    -0.19100
F4784       F  0.78588454  0.04433954  0.89176828    -0.22500
F4785       F  0.80341264  0.01018859  0.89285029    -0.24000
F4786       F  0.80768102  0.03492602  0.92168390    -0.17900
F4787       F  0.73492775  0.05778677  0.84011844    -0.20400
F4788       F  0.72664498  0.03360943  0.81170380    -0.21600
F4789       F  0.76200087  0.04821946  0.81502326    -0.18800
F4790       F  0.77456183  0.94272550  0.87079109    -0.18900
F4791       F  0.74882899  0.95472948  0.89627911    -0.22700
F4792       F  0.78525671  0.96637714  0.89883809    -0.24300
C4793       C  0.75425840  0.91256831  0.01761633    -0.11100
C4794       C  0.75287866  0.90428484  0.99520471     0.11500
C4795       C  0.74946299  0.91969023  0.97691847    -0.02900
C4796       C  0.74841016  0.94312414  0.98169325    -0.05600
C4797       C  0.75043638  0.95171798  0.00402161    -0.16400
C4798       C  0.75378737  0.93614153  0.02241134     0.02500
C4799       C  0.75582312  0.87940764  0.99129678     0.12400
C4800       C  0.74698397  0.91146121  0.95243360     0.63100
H4801       H  0.74641123  0.95505969  0.96772950     0.12500
C4802       C  0.75910826  0.94402837  0.04651509     0.55200
H4803       H  0.75662771  0.90029865  0.03127759     0.08300
C4804       C  0.77749950  0.86888813  0.99157120    -0.05500
C4805       C  0.77896693  0.84531033  0.98726101    -0.06300
C4806       C  0.75956214  0.83198381  0.98285187    -0.15900
C4807       C  0.73777441  0.84264940  0.98280116    -0.01500
C4808       C  0.73641824  0.86623858  0.98712564    -0.09000
C4809       C  0.79895882  0.88245984  0.99660284     0.65300
H4810       H  0.79540808  0.83699719  0.98754177     0.10700
C4811       C  0.71585992  0.82933532  0.97913044     0.63700
H4812       H  0.72006754  0.87473239  0.98739601     0.08100
F4813       F  0.77805461  0.95789675  0.04597578    -0.19400
F4814       F  0.76379855  0.92590608  0.06099836    -0.15600
F4815       F  0.74097198  0.95578398  0.05570908    -0.19100
F4816       F  0.72709019  0.89907839  0.95028281    -0.22500
F4817       F  0.76523176  0.89781582  0.94651366    -0.24000
F4818       F  0.74611281  0.92945022  0.93709034    -0.17900
F4819       F  0.71445603  0.81166594  0.99479599    -0.20400
F4820       F  0.71529622  0.82065349  0.95717316    -0.21600
F4821       F  0.69677708  0.84290343  0.98189153    -0.18800
F4822       F  0.81836211  0.86928267  0.99428338    -0.18900
F4823       F  0.79829061  0.89052742  0.01878224    -0.22700
F4824       F  0.80071237  0.90072158  0.98168969    -0.24300
C4825       C  0.68795951  0.04939299  0.04070773    -0.11100
C4826       C  0.69697250  0.05930420  0.06034224     0.11500
C4827       C  0.71905906  0.05304629  0.06750840    -0.02900
C4828       C  0.73239737  0.03909294  0.05310782    -0.05600
C4829       C  0.72395236  0.02989529  0.03242577    -0.16400
C4830       C  0.70021703  0.03338729  0.02771107     0.02500
C4831       C  0.68165509  0.07378207  0.07451835     0.12400
C4832       C  0.72804321  0.06023529  0.09076377     0.63100
H4833       H  0.74921745  0.03442160  0.05875487     0.12500
C4834       C  0.68600006  0.02052662  0.01030844     0.55200
H4835       H  0.67042585  0.05315321  0.03631422     0.08300
C4836       C  0.68052279  0.09758998  0.07217633    -0.05500
C4837       C  0.66603840  0.10992236  0.08680568    -0.06300
C4838       C  0.65037733  0.09952980  0.10223825    -0.15900
C4839       C  0.65388973  0.07512552  0.10605470    -0.01500
C4840       C  0.66806721  0.06303871  0.09076368    -0.09000
C4841       C  0.69329694  0.10973697  0.05311249     0.65300
H4842       H  0.66584537  0.12809348  0.08508378     0.10700
C4843       C  0.64532437  0.05994629  0.12568100     0.63700
H4844       H  0.66939204  0.04460849  0.09197938     0.08100
F4845       F  0.68064706  0.03503926  0.99244516    -0.19400
F4846       F  0.66591807  0.01334868  0.02043552    -0.15600
F4847       F  0.69638231  0.00125834  0.00198215    -0.19100
F4848       F  0.71457395  0.05082793  0.10773784    -0.22500
F4849       F  0.72766943  0.08371893  0.09279967    -0.24000
F4850       F  0.75016630  0.05296549  0.09425885    -0.17900
F4851       F  0.62592149  0.04844554  0.11903649    -0.20400
F4852       F  0.64167247  0.07130158  0.14578041    -0.21600
F4853       F  0.66145670  0.04355943  0.13112927    -0.18800
F4854       F  0.69040040  0.13316719  0.05398866    -0.18900
F4855       F  0.68527406  0.10215296  0.03224334    -0.22700
F4856       F  0.71630770  0.10520144  0.05448381    -0.24300
loop_ 
_geom_bond_atom_site_label_1 
_geom_bond_atom_site_label_2 
_geom_bond_distance 
_geom_bond_site_symmetry_2 
_ccdc_geom_bond_type 
C1            C2   1.561       .  S
C1            C7   1.546   1_545  S
C1            C5   1.539   1_554  S
C1         C4829   1.554       .  S
C2            H9   1.078       .  S
C2            C3   1.375       .  D
C3            C4   1.540   1_544  S
C3         C4733   1.514       .  S
C4            C8   1.531   1_556  S
C4            C6   1.541   1_565  S
C4           H10   1.110       .  S
C5           H11   1.084       .  S
C5            C6   1.361       .  D
C6         C4765   1.483       .  S
C7           H12   1.083       .  S
C7            C8   1.368       .  D
C8         C4797   1.495       .  S
C13          C14   1.542       .  S
C13          C19   1.556       .  S
C13          C17   1.547       .  S
C13        C4701   1.549       .  S
C14          H21   1.081       .  S
C14          C15   1.367       .  D
C15          C16   1.536       .  S
C15        C4605   1.495       .  S
C16          C20   1.533       .  S
C16          C18   1.525       .  S
C16          H22   1.111       .  S
C17          H23   1.082       .  S
C17          C18   1.361       .  D
C18        C4637   1.482       .  S
C19          H24   1.084       .  S
C19          C20   1.373       .  D
C20        C4669   1.491       .  S
C25          C26   1.554       .  S
C25          C31   1.548       .  S
C25          C29   1.539   1_545  S
C25        C4573   1.550       .  S
C26          H33   1.084       .  S
C26          C27   1.365       .  D
C27          C28   1.535   1_545  S
C27        C4486   1.487       .  S
C28          C32   1.540   1_455  S
C28          C30   1.537       .  S
C28          H34   1.106   1_455  S
C29          H35   1.086       .  S
C29          C30   1.364       .  D
C30        C4541   1.487       .  S
C31          H36   1.083   1_455  S
C31          C32   1.369   1_445  D
C32        C4509   1.496       .  S
C37          C38   1.552       .  S
C37          C43   1.538       .  S
C37          C41   1.555       .  S
C37        C4381   1.556       .  S
C38          H45   1.083       .  S
C38          C39   1.368       .  D
C39          C40   1.533       .  S
C39        C4445   1.495       .  S
C40          C44   1.532       .  S
C40          C42   1.539       .  S
C40          H46   1.108       .  S
C41          H47   1.071       .  S
C41          C42   1.366       .  D
C42        C4349   1.499       .  S
C43          H48   1.086       .  S
C43          C44   1.364       .  D
C44        C4413   1.483       .  S
Zn49         O53   1.947       .  S
Zn49         O54   2.010       .  S
Zn49         O58   2.006       .  S
Zn49         O65   1.993       .  S
Zn50         O53   1.962       .  S
Zn50         O55   2.027       .  S
Zn50         O57   2.036       .  S
Zn50         O61   1.996       .  S
Zn51         O53   1.958       .  S
Zn51         O56   2.049       .  S
Zn51         O59   2.027       .  S
Zn51         O62   1.993       .  S
Zn52         O53   1.994       .  S
Zn52         O60   2.059       .  S
Zn52         O63   2.052       .  S
Zn52         O64   2.075       .  S
O54          C66   1.271       .  A
O55          C67   1.273       .  A
O56          C68   1.278       .  A
O57          C66   1.275       .  A
O58          C68   1.270       .  A
O59          C67   1.275       .  A
O60          C69   1.279       .  A
O61          C70   1.273       .  A
O62          C69   1.268       .  A
O63          C70   1.277       .  A
O64          C71   1.281       .  A
O65          C71   1.269       .  A
C66        C4317   1.473       .  S
C67        C4221   1.485       .  S
C68        C4189   1.499       .  S
C69        C4253   1.496       .  S
C70        C4285   1.494       .  S
C71        C4454   1.494       .  S
C72          C73   1.552       .  S
C72          C78   1.548       .  S
C72          C76   1.546       .  S
C72        C4157   1.559       .  S
C73          H80   1.079       .  S
C73          C74   1.372       .  D
C74          C75   1.534       .  S
C74        C4125   1.493       .  S
C75          C79   1.539       .  S
C75          C77   1.530       .  S
C75          H81   1.110       .  S
C76          H82   1.086       .  S
C76          C77   1.366       .  D
C77        C4262   1.490       .  S
C78          H83   1.080       .  S
C78          C79   1.365       .  D
C79        C4093   1.490       .  S
C84          C85   1.561       .  S
C84          C90   1.549       .  S
C84          C88   1.539   1_554  S
C84        C4070   1.557       .  S
C85          H92   1.072       .  S
C85          C86   1.369   1_554  D
C86          C87   1.536       .  S
C86        C4029   1.503       .  S
C87          C91   1.526   1_556  S
C87          C89   1.531       .  S
C87          H93   1.111       .  S
C88          H94   1.084       .  S
C88          C89   1.365       .  D
C89        C4294   1.482       .  S
C90          H95   1.085       .  S
C90          C91   1.366       .  D
C91        C3997   1.484       .  S
Zn96        O100   1.957       .  S
Zn96        O101   2.012       .  S
Zn96        O105   2.011   1_556  S
Zn96        O112   2.024       .  S
Zn97        O100   1.957       .  S
Zn97        O102   2.010       .  S
Zn97        O104   2.025       .  S
Zn97        O108   2.049       .  S
Zn98        O100   1.990   1_554  S
Zn98        O103   2.069       .  S
Zn98        O106   2.065   1_554  S
Zn98        O109   2.046   1_554  S
Zn99        O100   1.961       .  S
Zn99        O107   1.998       .  S
Zn99        O110   2.038       .  S
Zn99        O111   2.015       .  S
O101        C113   1.273       .  A
O102        C114   1.273       .  A
O103        C115   1.280       .  A
O104        C113   1.275       .  A
O105        C115   1.270       .  A
O106        C114   1.279       .  A
O107        C116   1.273       .  A
O108        C117   1.276       .  A
O109        C116   1.276       .  A
O110        C117   1.275       .  A
O111        C118   1.271       .  A
O112        C118   1.275       .  A
C113       C3933   1.488       .  S
C114       C3869   1.497       .  S
C115       C3965   1.505       .  S
C116       C3901   1.487       .  S
C117       C4678   1.498       .  S
C118       C4806   1.490       .  S
C119       C3741   1.591       .  S
C119       C3773   1.611       .  S
C119       C3805   1.605       .  S
C119       C3837   1.586       .  S
C120        C121   1.559   1_655  S
C120        C126   1.549       .  S
C120        C124   1.538       .  S
C120       C3814   1.556       .  S
C121        H128   1.083       .  S
C121        C122   1.370       .  D
C122        C123   1.539       .  S
C122       C3709   1.496       .  S
C123        C127   1.540   1_455  S
C123        C125   1.538       .  S
C123        H129   1.107       .  S
C124        H130   1.087       .  S
C124        C125   1.361   1_655  D
C125       C3677   1.488       .  S
C126        H131   1.085       .  S
C126        C127   1.369       .  D
C127       C3654   1.494       .  S
C132        C133   1.552       .  S
C132        C138   1.562       .  S
C132        C136   1.543       .  S
C132       C3782   1.554       .  S
C133        H140   1.084       .  S
C133        C134   1.371       .  D
C134        C135   1.527       .  S
C134       C3878   1.489       .  S
C135        C139   1.522       .  S
C135        C137   1.528   1_556  S
C135        H141   1.112       .  S
C136        H142   1.082       .  S
C136        C137   1.365   1_556  D
C137       C3622   1.488       .  S
C138        H143   1.080       .  S
C138        C139   1.365       .  D
C139       C3581   1.482       .  S
C144        C145   1.544   1_545  S
C144        C150   1.555       .  S
C144        C148   1.545       .  S
C144       C3558   1.555       .  S
C145        H152   1.084       .  S
C145        C146   1.368       .  D
C146        C147   1.536       .  S
C146       C3517   1.494       .  S
C147        C151   1.529   1_565  S
C147        C149   1.543   1_565  S
C147        H153   1.107       .  S
C148        H154   1.079       .  S
C148        C149   1.371       .  D
C149       C3453   1.505       .  S
C150        H155   1.084       .  S
C150        C151   1.364       .  D
C151       C3485   1.485   1_545  S
C156       C3430   1.605       .  S
C156       C3549   1.599       .  S
C156       C4390   1.586       .  S
C156       C4582   1.590       .  S
C157        C158   1.560       .  S
C157        C163   1.538       .  S
C157        C161   1.550   1_554  S
C157       C3398   1.553       .  S
C158        H165   1.074       .  S
C158        C159   1.374   1_455  D
C159        C160   1.539   1_654  S
C159       C3942   1.505       .  S
C160        C164   1.534   1_556  S
C160        C162   1.530       .  S
C160        H166   1.110       .  S
C161        H167   1.083       .  S
C161        C162   1.367       .  D
C162       C3366   1.492       .  S
C163        H168   1.086       .  S
C163        C164   1.360       .  D
C164       C3334   1.481       .  S
C169        C170   1.541       .  S
C169        C175   1.554   1_554  S
C169        C173   1.545       .  S
C169       C3261   1.553       .  S
C170        H177   1.086       .  S
C170        C171   1.368       .  D
C171        C172   1.540   1_554  S
C171       C3302   1.493       .  S
C172        C176   1.536       .  S
C172        C174   1.537   1_556  S
C172        H178   1.103       .  S
C173        H179   1.086       .  S
C173        C174   1.366       .  D
C174       C3197   1.489       .  S
C175        H180   1.081       .  S
C175        C176   1.365       .  D
C176       C3229   1.493       .  S
C181        C182   1.546       .  S
C181        C187   1.538       .  S
C181        C185   1.556       .  S
C181       C3165   1.547       .  S
C182        H189   1.071       .  S
C182        C183   1.366       .  D
C183        C184   1.538       .  S
C183       C3133   1.492       .  S
C184        C188   1.532       .  S
C184        C186   1.534       .  S
C184        H190   1.110       .  S
C185        H191   1.085       .  S
C185        C186   1.369       .  D
C186       C3078   1.493       .  S
C187        H192   1.086       .  S
C187        C188   1.362       .  D
C188       C3101   1.484       .  S
C193       C3037   1.621       .  S
C193       C3174   1.602       .  S
C193       C3270   1.590       .  S
C193       C3389   1.608       .  S
C194        C195   1.548       .  S
C194        C200   1.544       .  S
C194        C198   1.556       .  S
C194       C2941   1.559       .  S
C195        H202   1.083       .  S
C195        C196   1.370       .  D
C196        C197   1.532       .  S
C196       C3005   1.486       .  S
C197        C201   1.533       .  S
C197        C199   1.539       .  S
C197        H203   1.108       .  S
C198        H204   1.078       .  S
C198        C199   1.371       .  D
C199       C2973   1.503       .  S
C200        H205   1.086       .  S
C200        C201   1.366       .  D
C201       C2909   1.497       .  S
Zn206       O210   1.955       .  S
Zn206       O211   1.993       .  S
Zn206       O215   2.038       .  S
Zn206       O222   2.021       .  S
Zn207       O210   1.981       .  S
Zn207       O212   2.048       .  S
Zn207       O214   2.034       .  S
Zn207       O218   2.058       .  S
Zn208       O210   1.947       .  S
Zn208       O213   2.015       .  S
Zn208       O216   1.983       .  S
Zn208       O219   1.999       .  S
Zn209       O210   1.959       .  S
Zn209       O217   2.021       .  S
Zn209       O220   2.011       .  S
Zn209       O221   2.013       .  S
O211        C223   1.272       .  A
O212        C224   1.277       .  A
O213        C225   1.271       .  A
O214        C223   1.275       .  A
O215        C225   1.274       .  A
O216        C224   1.268       .  A
O217        C226   1.274       .  A
O218        C227   1.277       .  A
O219        C226   1.271       .  A
O220        C227   1.273       .  A
O221        C228   1.272       .  A
O222        C228   1.275       .  A
C223       C2813   1.483       .  S
C224       C2845   1.479       .  S
C225       C3014   1.482       .  S
C226       C3526   1.483       .  S
C227       C2886   1.497       .  S
C228       C3110   1.481       .  S
Zn229       O233   1.955       .  S
Zn229       O234   1.995       .  S
Zn229       O238   2.022       .  S
Zn229       O245   2.018       .  S
Zn230       O233   1.978       .  S
Zn230       O235   2.052       .  S
Zn230       O237   2.049       .  S
Zn230       O241   2.062       .  S
Zn231       O233   1.950       .  S
Zn231       O236   2.003       .  S
Zn231       O239   1.980       .  S
Zn231       O242   1.988       .  S
Zn232       O233   1.951       .  S
Zn232       O240   2.021       .  S
Zn232       O243   2.003       .  S
Zn232       O244   2.011       .  S
O234        C246   1.272       .  A
O235        C247   1.277       .  A
O236        C248   1.270       .  A
O237        C246   1.277       .  A
O238        C248   1.272       .  A
O239        C247   1.269       .  A
O240        C249   1.274       .  A
O241        C250   1.277       .  A
O242        C249   1.268       .  A
O243        C250   1.273       .  A
O244        C251   1.274       .  A
O245        C251   1.272       .  A
C246       C2749   1.490       .  S
C247       C3718   1.483       .  S
C248       C4422   1.472       .  S
C249       C3238   1.479       .  S
C250       C2781   1.507       .  S
C251       C4102   1.485       .  S
Zn252       O256   1.972   1_655  S
Zn252       O257   2.040   1_655  S
Zn252       O261   2.049       .  S
Zn252       O268   2.030       .  S
Zn253       O256   1.952       .  S
Zn253       O258   2.012       .  S
Zn253       O260   2.000       .  S
Zn253       O264   2.028       .  S
Zn254       O256   1.947   1_655  S
Zn254       O259   1.984       .  S
Zn254       O262   1.997       .  S
Zn254       O265   2.011       .  S
Zn255       O256   1.941       .  S
Zn255       O263   1.996       .  S
Zn255       O266   1.993       .  S
Zn255       O267   1.995       .  S
O257        C269   1.275       .  A
O258        C270   1.274       .  A
O259        C271   1.271       .  A
O260        C269   1.273       .  A
O261        C271   1.275       .  A
O262        C270   1.270   1_655  A
O263        C272   1.270       .  A
O264        C273   1.275       .  A
O265        C272   1.271   1_655  A
O266        C273   1.269       .  A
O267        C274   1.271       .  A
O268        C274   1.274   1_655  A
C269       C3357   1.498       .  S
C270       C3686   1.473       .  S
C271       C4646   1.500       .  S
C272       C2694   1.465       .  S
C273       C2726   1.486       .  S
C274       C4550   1.482       .  S
C275        C276   1.546       .  S
C275        C281   1.551       .  S
C275        C279   1.557       .  S
C275       C2653   1.558       .  S
C276        H283   1.086       .  S
C276        C277   1.365       .  D
C277        C278   1.525       .  S
C277       C2790   1.488       .  S
C278        C282   1.537       .  S
C278        C280   1.528       .  S
C278        H284   1.111       .  S
C279        H285   1.079       .  S
C279        C280   1.365       .  D
C280       C2854   1.485       .  S
C281        H286   1.078       .  S
C281        C282   1.373       .  D
C282       C2717   1.500       .  S
Zn287       O291   1.987       .  S
Zn287       O292   2.063       .  S
Zn287       O296   2.080       .  S
Zn287       O303   2.071       .  S
Zn288       O291   1.953       .  S
Zn288       O293   2.016       .  S
Zn288       O295   2.002       .  S
Zn288       O299   2.013       .  S
Zn289       O291   1.946       .  S
Zn289       O294   1.984       .  S
Zn289       O297   2.000       .  S
Zn289       O300   2.009       .  S
Zn290       O291   1.956       .  S
Zn290       O298   2.018       .  S
Zn290       O301   2.020       .  S
Zn290       O302   1.987       .  S
O292        C304   1.279       .  A
O293        C305   1.272       .  A
O294        C306   1.270       .  A
O295        C304   1.271       .  A
O296        C306   1.280       .  A
O297        C305   1.271       .  A
O298        C307   1.273       .  A
O299        C308   1.272       .  A
O300        C307   1.270       .  A
O301        C308   1.273       .  A
O302        C309   1.268       .  A
O303        C309   1.282       .  A
C304       C2982   1.482       .  S
C305       C2557   1.468       .  S
C306       C3069   1.489       .  S
C307       C2598   1.484       .  S
C308       C2525   1.479       .  S
C309       C2621   1.498       .  S
C310       C2429   1.622       .  S
C310       C2461   1.587       .  S
C310       C2493   1.596       .  S
C310       C2662   1.610       .  S
C311        C312   1.548       .  S
C311        C317   1.543       .  S
C311        C315   1.560       .  S
C311       C2502   1.564       .  S
C312        H319   1.075       .  S
C312        C313   1.374       .  D
C313        C314   1.539       .  S
C313       C2365   1.499       .  S
C314        C318   1.537   1_565  S
C314        C316   1.529       .  S
C314        H320   1.110   1_565  S
C315        H321   1.082       .  S
C315        C316   1.365       .  D
C316       C2397   1.490       .  S
C317        H322   1.086       .  S
C317        C318   1.362   1_565  D
C318       C4326   1.488       .  S
C323        C324   1.545       .  S
C323        C329   1.557       .  S
C323        C327   1.539       .  S
C323       C2470   1.551       .  S
C324        H331   1.082   1_556  S
C324        C325   1.369   1_556  D
C325        C326   1.545       .  S
C325       C2589   1.496       .  S
C326        C330   1.535   1_554  S
C326        C328   1.539   1_554  S
C326        H332   1.109       .  S
C327        H333   1.087       .  S
C327        C328   1.363       .  D
C328       C3910   1.491       .  S
C329        H334   1.082       .  S
C329        C330   1.365       .  D
C330       C2333   1.491       .  S
C335        C336   1.546       .  S
C335        C341   1.545       .  S
C335        C339   1.554       .  S
C335       C2269   1.553       .  S
C336        H343   1.079       .  S
C336        C337   1.372       .  D
C337        C338   1.544       .  S
C337       C2246   1.505       .  S
C338        C342   1.531       .  S
C338        C340   1.531       .  S
C338        H344   1.108       .  S
C339        H345   1.083       .  S
C339        C340   1.365       .  D
C340       C2310   1.485       .  S
C341        H346   1.083       .  S
C341        C342   1.364       .  D
C342       C2205   1.491       .  S
Zn347       O351   1.951       .  S
Zn347       O352   2.008       .  S
Zn347       O356   2.008       .  S
Zn347       O363   2.016       .  S
Zn348       O351   1.980       .  S
Zn348       O353   2.028       .  S
Zn348       O355   2.044       .  S
Zn348       O359   2.040       .  S
Zn349       O351   1.960       .  S
Zn349       O354   2.027       .  S
Zn349       O357   1.997       .  S
Zn349       O360   2.028       .  S
Zn350       O351   1.957       .  S
Zn350       O358   2.029       .  S
Zn350       O361   1.993       .  S
Zn350       O362   2.027       .  S
O352        C364   1.271       .  A
O353        C365   1.274       .  A
O354        C366   1.275       .  A
O355        C364   1.276       .  A
O356        C366   1.271       .  A
O357        C365   1.271       .  A
O358        C367   1.273       .  A
O359        C368   1.276       .  A
O360        C367   1.274       .  A
O361        C368   1.272       .  A
O362        C369   1.276       .  A
O363        C369   1.272       .  A
C364       C2173   1.486       .  S
C365       C2237   1.474       .  S
C366       C2077   1.480       .  S
C367       C2109   1.492       .  S
C368       C2150   1.484       .  S
C369       C3613   1.492       .  S
C370        C371   1.546       .  S
C370        C376   1.550       .  S
C370        C374   1.556       .  S
C370       C2022   1.563       .  S
C371        H378   1.086       .  S
C371        C372   1.368       .  D
C372        C373   1.538       .  S
C372       C2141   1.493       .  S
C373        C377   1.537       .  S
C373        C375   1.535       .  S
C373        H379   1.107       .  S
C374        H380   1.082       .  S
C374        C375   1.367       .  D
C375       C1981   1.491       .  S
C376        H381   1.086       .  S
C376        C377   1.369       .  D
C377       C2045   1.494       .  S
Zn382       O386   1.945   1_545  S
Zn382       O387   1.996       .  S
Zn382       O391   2.011       .  S
Zn382       O398   1.991       .  S
Zn383       O386   1.980   1_545  S
Zn383       O388   2.055       .  S
Zn383       O390   2.034       .  S
Zn383       O394   2.062       .  S
Zn384       O386   1.934       .  S
Zn384       O389   2.012       .  S
Zn384       O392   1.967       .  S
Zn384       O395   2.009       .  S
Zn385       O386   1.942       .  S
Zn385       O393   2.010       .  S
Zn385       O396   1.970       .  S
Zn385       O397   2.010       .  S
O387        C399   1.271       .  A
O388        C400   1.279       .  A
O389        C401   1.273       .  A
O390        C399   1.275       .  A
O391        C401   1.271   1_545  A
O392        C400   1.265   1_565  A
O393        C402   1.270       .  A
O394        C403   1.279   1_545  A
O395        C402   1.273       .  A
O396        C403   1.265       .  A
O397        C404   1.272       .  A
O398        C404   1.269   1_545  A
C399       C1949   1.486       .  S
C400       C1917   1.493       .  S
C401       C4518   1.482       .  S
C402       C4614   1.484       .  S
C403       C2406   1.497       .  S
C404       C4774   1.466       .  S
C405        C406   1.540       .  S
C405        C411   1.557       .  S
C405        C409   1.541       .  S
C405       C3846   1.548       .  S
C406        H413   1.085       .  S
C406        C407   1.363       .  D
C407        C408   1.540       .  S
C407       C1958   1.486       .  S
C408        C412   1.540       .  S
C408        C410   1.541       .  S
C408        H414   1.106       .  S
C409        H415   1.086       .  S
C409        C410   1.365       .  D
C410       C1885   1.494       .  S
C411        H416   1.082       .  S
C411        C412   1.368       .  D
C412       C4230   1.495       .  S
Zn417       O421   1.955       .  S
Zn417       O422   2.016       .  S
Zn417       O426   2.024       .  S
Zn417       O433   2.005       .  S
Zn418       O421   1.955       .  S
Zn418       O423   2.024       .  S
Zn418       O425   2.006       .  S
Zn418       O429   2.004       .  S
Zn419       O421   1.962       .  S
Zn419       O424   2.058       .  S
Zn419       O427   2.032       .  S
Zn419       O430   2.004       .  S
Zn420       O421   1.984       .  S
Zn420       O428   2.039       .  S
Zn420       O431   2.052       .  S
Zn420       O432   2.047       .  S
O422        C434   1.272       .  A
O423        C435   1.273       .  A
O424        C436   1.278       .  A
O425        C434   1.273       .  A
O426        C436   1.273       .  A
O427        C435   1.275       .  A
O428        C437   1.277       .  A
O429        C438   1.269       .  A
O430        C437   1.272       .  A
O431        C438   1.277       .  A
O432        C439   1.276       .  A
O433        C439   1.273       .  A
C434       C1789   1.483       .  S
C435       C1894   1.485       .  S
C436       C1830   1.492       .  S
C437       C1853   1.476       .  S
C438       C2301   1.501       .  S
C439       C2054   1.490       .  S
C440       C1661   1.605       .  S
C440       C1702   1.604       .  S
C440       C1725   1.589       .  S
C440       C1766   1.593       .  S
C441        C442   1.564       .  S
C441        C447   1.549       .  S
C441        C445   1.539       .  S
C441       C1734   1.559       .  S
C442        H449   1.078   1_565  S
C442        C443   1.371   1_565  D
C443        C444   1.532   1_545  S
C443       C1821   1.498       .  S
C444        C448   1.538       .  S
C444        C446   1.529       .  S
C444        H450   1.112   1_565  S
C445        H451   1.086       .  S
C445        C446   1.362       .  D
C446       C1926   1.479       .  S
C447        H452   1.081       .  S
C447        C448   1.371       .  D
C448       C1629   1.498       .  S
C453        C454   1.551   1_655  S
C453        C459   1.550       .  S
C453        C457   1.549       .  S
C453       C1693   1.554       .  S
C454        H461   1.074       .  S
C454        C455   1.370       .  D
C455        C456   1.537       .  S
C455       C2877   1.501       .  S
C456        C460   1.526   1_455  S
C456        C458   1.531   1_455  S
C456        H462   1.111       .  S
C457        H463   1.084       .  S
C457        C458   1.371       .  D
C458       C1606   1.494       .  S
C459        H464   1.084       .  S
C459        C460   1.358       .  D
C460       C2685   1.476       .  S
C465        C466   1.541       .  S
C465        C471   1.548       .  S
C465        C469   1.559       .  S
C465       C1757   1.564       .  S
C466        H473   1.086       .  S
C466        C467   1.365       .  D
C467        C468   1.538       .  S
C467       C2534   1.490       .  S
C468        C472   1.543       .  S
C468        C470   1.536       .  S
C468        H474   1.105       .  S
C469        H475   1.066       .  S
C469        C470   1.366       .  D
C470       C2086   1.492       .  S
C471        H476   1.086       .  S
C471        C472   1.372       .  D
C472       C3974   1.502       .  S
C477        C478   1.542       .  S
C477        C483   1.543       .  S
C477        C481   1.560       .  S
C477       C1565   1.550       .  S
C478        H485   1.085       .  S
C478        C479   1.365       .  D
C479        C480   1.530       .  S
C479       C2758   1.486       .  S
C480        C484   1.539       .  S
C480        C482   1.525       .  S
C480        H486   1.110       .  S
C481        H487   1.083       .  S
C481        C482   1.369       .  D
C482       C1533   1.489       .  S
C483        H488   1.078       .  S
C483        C484   1.365       .  D
C484       C2822   1.492       .  S
Zn489       O493   1.992       .  S
Zn489       O494   2.076       .  S
Zn489       O498   2.070       .  S
Zn489       O505   2.070       .  S
Zn490       O493   1.955       .  S
Zn490       O495   2.013       .  S
Zn490       O497   2.007       .  S
Zn490       O501   2.036       .  S
Zn491       O493   1.958   1_554  S
Zn491       O496   1.998       .  S
Zn491       O499   2.028       .  S
Zn491       O502   2.027       .  S
Zn492       O493   1.945   1_554  S
Zn492       O500   2.009       .  S
Zn492       O503   2.001       .  S
Zn492       O504   1.982       .  S
O494        C506   1.281       .  A
O495        C507   1.274   1_556  A
O496        C508   1.271   1_554  A
O497        C506   1.270       .  A
O498        C508   1.280       .  A
O499        C507   1.274       .  A
O500        C509   1.270       .  A
O501        C510   1.274       .  A
O502        C509   1.273       .  A
O503        C510   1.270   1_554  A
O504        C511   1.267   1_554  A
O505        C511   1.281       .  A
C506       C4134   1.508       .  S
C507       C2342   1.479       .  S
C508       C3206   1.491       .  S
C509       C1501   1.473       .  S
C510       C3590   1.484       .  S
C511       C4006   1.501   1_556  S
C512        C513   1.545       .  S
C512        C518   1.546       .  S
C512        C516   1.547       .  S
C512       C1469   1.549       .  S
C513        H520   1.086       .  S
C513        C514   1.361       .  D
C514        C515   1.539       .  S
C514       C1510   1.478       .  S
C515        C519   1.532       .  S
C515        C517   1.539       .  S
C515        H521   1.109       .  S
C516        H522   1.081       .  S
C516        C517   1.374       .  D
C517       C2118   1.505       .  S
C518        H523   1.079       .  S
C518        C519   1.364       .  D
C519       C2566   1.486       .  S
C524       C1405   1.596       .  S
C524       C1437   1.584       .  S
C524       C1478   1.598       .  S
C524       C1574   1.606       .  S
C525        C526   1.554       .  S
C525        C531   1.541       .  S
C525        C529   1.537       .  S
C525       C1414   1.543       .  S
C526        H533   1.078       .  S
C526        C527   1.370       .  D
C527        C528   1.542       .  S
C527       C4198   1.500       .  S
C528        C532   1.532       .  S
C528        C530   1.534       .  S
C528        H534   1.108       .  S
C529        H535   1.086       .  S
C529        C530   1.363       .  D
C530       C1798   1.486       .  S
C531        H536   1.084       .  S
C531        C532   1.364       .  D
C532       C1382   1.478       .  S
Zn537       O541   1.956       .  S
Zn537       O542   2.001       .  S
Zn537       O546   2.011       .  S
Zn537       O553   2.017       .  S
Zn538       O541   1.972   1_545  S
Zn538       O543   2.030       .  S
Zn538       O545   2.036       .  S
Zn538       O549   2.036       .  S
Zn539       O541   1.953   1_545  S
Zn539       O544   2.012       .  S
Zn539       O547   2.003       .  S
Zn539       O550   2.017       .  S
Zn540       O541   1.956       .  S
Zn540       O548   2.029       .  S
Zn540       O551   2.000       .  S
Zn540       O552   2.018       .  S
O542        C554   1.271       .  A
O543        C555   1.274       .  A
O544        C556   1.273   1_545  A
O545        C554   1.274   1_545  A
O546        C556   1.272       .  A
O547        C555   1.272       .  A
O548        C557   1.274       .  A
O549        C558   1.276   1_545  A
O550        C557   1.273   1_545  A
O551        C558   1.271       .  A
O552        C559   1.272       .  A
O553        C559   1.275       .  A
C554       C1638   1.489       .  S
C555       C1373   1.487       .  S
C556       C1341   1.472       .  S
C557       C3462   1.483       .  S
C558       C2374   1.479       .  S
C559       C2918   1.489       .  S
C560        C561   1.550   1_545  S
C560        C566   1.544       .  S
C560        C564   1.559       .  S
C560       C1277   1.556       .  S
C561        H568   1.084       .  S
C561        C562   1.366       .  D
C562        C563   1.528       .  S
C562       C2630   1.485       .  S
C563        C567   1.530   1_565  S
C563        C565   1.531   1_565  S
C563        H569   1.112       .  S
C564        H570   1.077       .  S
C564        C565   1.365       .  D
C565       C1309   1.488       .  S
C566        H571   1.084       .  S
C566        C567   1.366       .  D
C567       C1350   1.487       .  S
C572        C573   1.547       .  S
C572        C578   1.544       .  S
C572        C576   1.560       .  S
C572       C3046   1.557       .  S
C573        H580   1.085       .  S
C573        C574   1.366       .  D
C574        C575   1.534       .  S
C574       C1222   1.487       .  S
C575        C579   1.537   1_455  S
C575        C577   1.529       .  S
C575        H581   1.111       .  S
C576        H582   1.082       .  S
C576        C577   1.365       .  D
C577       C1254   1.488       .  S
C578        H583   1.083       .  S
C578        C579   1.369   1_455  D
C579       C2182   1.498       .  S
Zn584       O588   1.941       .  S
Zn584       O589   1.993       .  S
Zn584       O593   1.978       .  S
Zn584       O600   1.991       .  S
Zn585       O588   1.959   1_655  S
Zn585       O590   1.997   1_655  S
Zn585       O592   2.052       .  S
Zn585       O596   2.033       .  S
Zn586       O588   1.991       .  S
Zn586       O591   2.053       .  S
Zn586       O594   2.049       .  S
Zn586       O597   2.058       .  S
Zn587       O588   1.950   1_655  S
Zn587       O595   1.999       .  S
Zn587       O598   2.025       .  S
Zn587       O599   2.026       .  S
O589        C601   1.268       .  A
O590        C602   1.275       .  A
O591        C603   1.278       .  A
O592        C601   1.277   1_655  A
O593        C603   1.267       .  A
O594        C602   1.277       .  A
O595        C604   1.273   1_655  A
O596        C605   1.274       .  A
O597        C604   1.276       .  A
O598        C605   1.274       .  A
O599        C606   1.274   1_655  A
O600        C606   1.270       .  A
C601       C1181   1.490       .  S
C602       C3645   1.494       .  S
C603       C1542   1.490       .  S
C604       C1597   1.498       .  S
C605       C2214   1.480       .  S
C606       C1213   1.478       .  S
C607        C608   1.560       .  S
C607        C613   1.540       .  S
C607        C611   1.551       .  S
C607       C3421   1.560       .  S
C608        H615   1.084       .  S
C608        C609   1.367       .  D
C609        C610   1.529       .  S
C609       C1158   1.491       .  S
C610        C614   1.539   1_455  S
C610        C612   1.535       .  S
C610        H616   1.111   1_455  S
C611        H617   1.083       .  S
C611        C612   1.373       .  D
C612       C1190   1.495       .  S
C613        H618   1.081   1_455  S
C613        C614   1.365   1_455  D
C614       C1862   1.495       .  S
C619        C620   1.561       .  S
C619        C625   1.549       .  S
C619        C623   1.547       .  S
C619       C2438   1.565       .  S
C620        H627   1.081   1_556  S
C620        C621   1.363   1_556  D
C621        C622   1.528   1_554  S
C621       C1117   1.492       .  S
C622        C626   1.537       .  S
C622        C624   1.542       .  S
C622        H628   1.111   1_556  S
C623        H629   1.080       .  S
C623        C624   1.371       .  D
C624       C1094   1.505       .  S
C625        H630   1.084       .  S
C625        C626   1.371       .  D
C626       C1053   1.493   1_565  S
Zn631       O635   1.945   1_554  S
Zn631       O636   2.023       .  S
Zn631       O640   1.990       .  S
Zn631       O647   2.001       .  S
Zn632       O635   1.954   1_545  S
Zn632       O637   1.978   1_545  S
Zn632       O639   2.028   1_545  S
Zn632       O643   2.024       .  S
Zn633       O635   1.991   1_655  S
Zn633       O638   2.052   1_655  S
Zn633       O641   2.040       .  S
Zn633       O644   2.067       .  S
Zn634       O635   1.956   1_644  S
Zn634       O642   2.005   1_545  S
Zn634       O645   2.027   1_655  S
Zn634       O646   2.016   1_645  S
O636        C648   1.272   1_554  A
O637        C649   1.270       .  A
O638        C650   1.277       .  A
O639        C648   1.274       .  A
O640        C650   1.267   1_554  A
O641        C649   1.276   1_655  A
O642        C651   1.273   1_554  A
O643        C652   1.273       .  A
O644        C651   1.278       .  A
O645        C652   1.274   1_554  A
O646        C653   1.273       .  A
O647        C653   1.272       .  A
C648       C1085   1.492       .  S
C649       C4477   1.479       .  S
C650       C3325   1.500       .  S
C651       C4742   1.493       .  S
C652        C989   1.477       .  S
C653       C1021   1.468       .  S
C654        C655   1.550   1_655  S
C654        C660   1.551       .  S
C654        C658   1.540       .  S
C654       C1670   1.553       .  S
C655        H662   1.074       .  S
C655        C656   1.372       .  D
C656        C657   1.545       .  S
C656        C957   1.507       .  S
C657        C661   1.532       .  S
C657        C659   1.538   1_465  S
C657        H663   1.110       .  S
C658        H664   1.086       .  S
C658        C659   1.365   1_565  D
C659        C925   1.490       .  S
C660        H665   1.084       .  S
C660        C661   1.361   1_655  D
C661       C1030   1.484       .  S
C666        C667   1.561       .  S
C666        C672   1.546       .  S
C666        C670   1.552   1_655  S
C666       C3750   1.560       .  S
C667        H674   1.081       .  S
C667        C668   1.368   1_556  D
C668        C669   1.529   1_654  S
C668        C861   1.492       .  S
C669        C673   1.525       .  S
C669        C671   1.536       .  S
C669        H675   1.112       .  S
C670        H676   1.080       .  S
C670        C671   1.372       .  D
C671        C893   1.496       .  S
C672        H677   1.086       .  S
C672        C673   1.365   1_655  D
C673        C998   1.486       .  S
Zn678       O682   1.980   1_554  S
Zn678       O683   2.039       .  S
Zn678       O687   2.045       .  S
Zn678       O694   2.035       .  S
Zn679       O682   1.960       .  S
Zn679       O684   2.038       .  S
Zn679       O686   2.030       .  S
Zn679       O690   2.026       .  S
Zn680       O682   1.954       .  S
Zn680       O685   1.987       .  S
Zn680       O688   2.007       .  S
Zn680       O691   2.029       .  S
Zn681       O682   1.947   1_554  S
Zn681       O689   2.014       .  S
Zn681       O692   1.995       .  S
Zn681       O693   1.985       .  S
O683        C695   1.274   1_554  A
O684        C696   1.276       .  A
O685        C697   1.270   1_556  A
O686        C695   1.276       .  A
O687        C697   1.277       .  A
O688        C696   1.273       .  A
O689        C698   1.271   1_554  A
O690        C699   1.275       .  A
O691        C698   1.272       .  A
O692        C699   1.270   1_554  A
O693        C700   1.266       .  A
O694        C700   1.276       .  A
C695       C1062   1.498       .  S
C696       C4358   1.485       .  S
C697        C902   1.474       .  S
C698       C3293   1.482   1_556  S
C699       C4038   1.481       .  S
C700        C829   1.496       .  S
Zn701       O705   1.947   1_545  S
Zn701       O706   2.004       .  S
Zn701       O710   2.002       .  S
Zn701       O717   2.005       .  S
Zn702       O705   1.989       .  S
Zn702       O707   2.025       .  S
Zn702       O709   2.058       .  S
Zn702       O713   2.045       .  S
Zn703       O705   1.956       .  S
Zn703       O708   2.028       .  S
Zn703       O711   1.986       .  S
Zn703       O714   2.049       .  S
Zn704       O705   1.950   1_545  S
Zn704       O712   2.031   1_545  S
Zn704       O715   1.985       .  S
Zn704       O716   2.003       .  S
O706        C718   1.268   1_545  A
O707        C719   1.274       .  A
O708        C720   1.273       .  A
O709        C718   1.277       .  A
O710        C720   1.272   1_545  A
O711        C719   1.271       .  A
O712        C721   1.273       .  A
O713        C722   1.276       .  A
O714        C721   1.275       .  A
O715        C722   1.271   1_545  A
O716        C723   1.272       .  A
O717        C723   1.271       .  A
C718       C3494   1.508       .  S
C719       C3142   1.464       .  S
C720        C966   1.485       .  S
C721       C1126   1.485       .  S
C722       C1318   1.481       .  S
C723        C797   1.476       .  S
Zn724       O728   1.989       .  S
Zn724       O729   2.061       .  S
Zn724       O733   2.063       .  S
Zn724       O740   2.071       .  S
Zn725       O728   1.950       .  S
Zn725       O730   2.013       .  S
Zn725       O732   1.975       .  S
Zn725       O736   2.012       .  S
Zn726       O728   1.955   1_655  S
Zn726       O731   2.006       .  S
Zn726       O734   2.036       .  S
Zn726       O737   2.010       .  S
Zn727       O728   1.953   1_655  S
Zn727       O735   2.010       .  S
Zn727       O738   2.025       .  S
Zn727       O739   1.997       .  S
O729        C741   1.280       .  A
O730        C742   1.271       .  A
O731        C743   1.272   1_655  A
O732        C741   1.267       .  A
O733        C743   1.279       .  A
O734        C742   1.274   1_655  A
O735        C744   1.272       .  A
O736        C745   1.271       .  A
O737        C744   1.274       .  A
O738        C745   1.273   1_655  A
O739        C746   1.268   1_655  A
O740        C746   1.280       .  A
C741        C774   1.489       .  S
C742       C1245   1.476       .  S
C743        C870   1.486       .  S
C744       C1990   1.480       .  S
C745       C1149   1.478       .  S
C746        C934   1.506       .  S
C747        C748   1.554       .  S
C747        C753   1.541       .  S
C747        C751   1.552       .  S
C747       C1446   1.554       .  S
C748        H755   1.079       .  S
C748        C749   1.375       .  D
C749        C750   1.542       .  S
C749        C806   1.504       .  S
C750        C754   1.530       .  S
C750        C752   1.529       .  S
C750        H756   1.108       .  S
C751        H757   1.084       .  S
C751        C752   1.362       .  D
C752        C838   1.480       .  S
C753        H758   1.086       .  S
C753        C754   1.365       .  D
C754        C765   1.490       .  S
C759       C1286   1.586       .  S
C759       C2013   1.609       .  S
C759       C4061   1.589       .  S
C759       C4838   1.605       .  S
C760       C2278   1.592       .  S
C760       C2950   1.615       .  S
C760       C4166   1.589       .  S
C760       C4710   1.609       .  S
C761        C762   1.398       .  A
C761        C766   1.404       .  A
C761        H771   1.084       .  S
C762        C767   1.481       .  S
C762        C763   1.415       .  A
C763        C768   1.519       .  S
C763        C764   1.408       .  A
C764        C765   1.405       .  A
C764        H769   1.083       .  S
C765        C766   1.421       .  A
C766        C770   1.516       .  S
C767        C772   1.415       .  A
C767        C776   1.396       .  A
C768        F784   1.382       .  S
C768        F785   1.381       .  S
C768        F786   1.384       .  S
C770        F781   1.385       .  S
C770        F782   1.378       .  S
C770        F783   1.380       .  S
C772        C777   1.520       .  S
C772        C773   1.409       .  A
C773        C774   1.406       .  A
C773        H778   1.083       .  S
C774        C775   1.428       .  A
C775        C779   1.524       .  S
C775        C776   1.404       .  A
C776        H780   1.083       .  S
C777        F790   1.384       .  S
C777        F791   1.382       .  S
C777        F792   1.382       .  S
C779        F787   1.385       .  S
C779        F788   1.384       .  S
C779        F789   1.383       .  S
C793        C794   1.403       .  A
C793        C798   1.406       .  A
C793        H803   1.083       .  S
C794        C799   1.479       .  S
C794        C795   1.413       .  A
C795        C800   1.520       .  S
C795        C796   1.404       .  A
C796        C797   1.405       .  A
C796        H801   1.083       .  S
C797        C798   1.417       .  A
C798        C802   1.519       .  S
C799        C804   1.409       .  A
C799        C808   1.399       .  A
C800        F816   1.382       .  S
C800        F817   1.382       .  S
C800        F818   1.385       .  S
C802        F813   1.384       .  S
C802        F814   1.382       .  S
C802        F815   1.384       .  S
C804        C809   1.522       .  S
C804        C805   1.402       .  A
C805        C806   1.410       .  A
C805        H810   1.077       .  S
C806        C807   1.427       .  A
C807        C811   1.517       .  S
C807        C808   1.409       .  A
C808        H812   1.083       .  S
C809        F822   1.384       .  S
C809        F823   1.382       .  S
C809        F824   1.382       .  S
C811        F819   1.385       .  S
C811        F820   1.375       .  S
C811        F821   1.381       .  S
C825        C826   1.397       .  A
C825        C830   1.405       .  A
C825        H835   1.083       .  S
C826        C831   1.479       .  S
C826        C827   1.415       .  A
C827        C832   1.519       .  S
C827        C828   1.404       .  A
C828        C829   1.409       .  A
C828        H833   1.084       .  S
C829        C830   1.430       .  A
C830        C834   1.523       .  S
C831        C836   1.414       .  A
C831        C840   1.402       .  A
C832        F848   1.383       .  S
C832        F849   1.382       .  S
C832        F850   1.384       .  S
C834        F845   1.384       .  S
C834        F846   1.385       .  S
C834        F847   1.379       .  S
C836        C841   1.518       .  S
C836        C837   1.406       .  A
C837        C838   1.402       .  A
C837        H842   1.083       .  S
C838        C839   1.413       .  A
C839        C843   1.514       .  S
C839        C840   1.405       .  A
C840        H844   1.083       .  S
C841        F854   1.384       .  S
C841        F855   1.382       .  S
C841        F856   1.383       .  S
C843        F851   1.385       .  S
C843        F852   1.383       .  S
C843        F853   1.379       .  S
C857        C858   1.403       .  A
C857        C862   1.409       .  A
C857        H867   1.083       .  S
C858        C863   1.493       .  S
C858        C859   1.417   1_455  A
C859        C864   1.519       .  S
C859        C860   1.408       .  A
C860        C861   1.405       .  A
C860        H865   1.082       .  S
C861        C862   1.421   1_655  A
C862        C866   1.520       .  S
C863        C868   1.419       .  A
C863        C872   1.402   1_455  A
C864        F880   1.382       .  S
C864        F881   1.382   1_655  S
C864        F882   1.385       .  S
C866        F877   1.385       .  S
C866        F878   1.382   1_455  S
C866        F879   1.382       .  S
C868        C873   1.517       .  S
C868        C869   1.410       .  A
C869        C870   1.402       .  A
C869        H874   1.083       .  S
C870        C871   1.421   1_455  A
C871        C875   1.520       .  S
C871        C872   1.409       .  A
C872        H876   1.083       .  S
C873        F886   1.384       .  S
C873        F887   1.382       .  S
C873        F888   1.382       .  S
C875        F883   1.382       .  S
C875        F884   1.384       .  S
C875        F885   1.385       .  S
C889        C890   1.400       .  A
C889        C894   1.408       .  A
C889        H899   1.083       .  S
C890        C895   1.481       .  S
C890        C891   1.410   1_556  A
C891        C896   1.519       .  S
C891        C892   1.404       .  A
C892        C893   1.409   1_554  A
C892        H897   1.082       .  S
C893        C894   1.422       .  A
C894        C898   1.516       .  S
C895        C900   1.417       .  A
C895        C904   1.399   1_556  A
C896        F912   1.381       .  S
C896        F913   1.382       .  S
C896        F914   1.382       .  S
C898        F909   1.385       .  S
C898        F910   1.380       .  S
C898        F911   1.376       .  S
C900        C905   1.520       .  S
C900        C901   1.408       .  A
C901        C902   1.402   1_556  A
C901        H906   1.083       .  S
C902        C903   1.418       .  A
C903        C907   1.520       .  S
C903        C904   1.403       .  A
C904        H908   1.083       .  S
C905        F918   1.384       .  S
C905        F919   1.382       .  S
C905        F920   1.382   1_556  S
C907        F915   1.385       .  S
C907        F916   1.382       .  S
C907        F917   1.384       .  S
C921        C922   1.403   1_655  A
C921        C926   1.410       .  A
C921        H931   1.083       .  S
C922        C927   1.493       .  S
C922        C923   1.418       .  A
C923        C928   1.518       .  S
C923        C924   1.410       .  A
C924        C925   1.403   1_455  A
C924        H929   1.083       .  S
C925        C926   1.416       .  A
C926        C930   1.514       .  S
C927        C932   1.415       .  A
C927        C936   1.398   1_455  A
C928        F944   1.382       .  S
C928        F945   1.382       .  S
C928        F946   1.385       .  S
C930        F941   1.379       .  S
C930        F942   1.385       .  S
C930        F943   1.383       .  S
C932        C937   1.519       .  S
C932        C933   1.413       .  A
C933        C934   1.410       .  A
C933        H938   1.082       .  S
C934        C935   1.433   1_455  A
C935        C939   1.524       .  S
C935        C936   1.410       .  A
C936        H940   1.083       .  S
C937        F950   1.384       .  S
C937        F951   1.382       .  S
C937        F952   1.383       .  S
C939        F947   1.384       .  S
C939        F948   1.384       .  S
C939        F949   1.385       .  S
C953        C954   1.400       .  A
C953        C958   1.413       .  A
C953        H963   1.083       .  S
C954        C959   1.485       .  S
C954        C955   1.410       .  A
C955        C960   1.522   1_565  S
C955        C956   1.403       .  A
C956        C957   1.410       .  A
C956        H961   1.079   1_565  S
C957        C958   1.431       .  A
C958        C962   1.524       .  S
C959        C964   1.413       .  A
C959        C968   1.403       .  A
C960        F976   1.382       .  S
C960        F977   1.382       .  S
C960        F978   1.385       .  S
C962        F973   1.382       .  S
C962        F974   1.385       .  S
C962        F975   1.381       .  S
C964        C969   1.520       .  S
C964        C965   1.405       .  A
C965        C966   1.407       .  A
C965        H970   1.083       .  S
C966        C967   1.419       .  A
C967        C971   1.518       .  S
C967        C968   1.409       .  A
C968        H972   1.083       .  S
C969        F982   1.385       .  S
C969        F983   1.382       .  S
C969        F984   1.381   1_565  S
C971        F979   1.383       .  S
C971        F980   1.383       .  S
C971        F981   1.385       .  S
C985        C986   1.405   1_554  A
C985        C990   1.409       .  A
C985        H995   1.083       .  S
C986        C991   1.488       .  S
C986        C987   1.417   1_455  A
C987        C992   1.520       .  S
C987        C988   1.408   1_655  A
C988        C989   1.403       .  A
C988        H993   1.083   1_455  S
C989        C990   1.413   1_556  A
C990        C994   1.516       .  S
C991        C996   1.417   1_455  A
C991       C1000   1.401       .  A
C992       F1008   1.382   1_655  S
C992       F1009   1.382       .  S
C992       F1010   1.385       .  S
C994       F1005   1.382       .  S
C994       F1006   1.384       .  S
C994       F1007   1.383       .  S
C996       C1001   1.518   1_556  S
C996        C997   1.410       .  A
C997        C998   1.403   1_655  A
C997       H1002   1.083       .  S
C998        C999   1.416       .  A
C999       C1003   1.513       .  S
C999       C1000   1.406       .  A
C1000      H1004   1.083       .  S
C1001      F1014   1.385       .  S
C1001      F1015   1.382       .  S
C1001      F1016   1.382   1_554  S
C1003      F1011   1.381       .  S
C1003      F1012   1.382       .  S
C1003      F1013   1.385       .  S
C1017      C1018   1.399   1_655  A
C1017      C1022   1.402   1_655  A
C1017      H1027   1.083       .  S
C1018      C1023   1.478       .  S
C1018      C1019   1.418       .  A
C1019      C1024   1.520   1_565  S
C1019      C1020   1.408       .  A
C1020      C1021   1.401       .  A
C1020      H1025   1.083   1_565  S
C1021      C1022   1.416       .  A
C1022      C1026   1.520   1_455  S
C1023      C1028   1.415   1_455  A
C1023      C1032   1.399       .  A
C1024      F1040   1.382       .  S
C1024      F1041   1.383       .  S
C1024      F1042   1.384       .  S
C1026      F1037   1.384       .  S
C1026      F1038   1.382   1_655  S
C1026      F1039   1.384       .  S
C1028      C1033   1.519       .  S
C1028      C1029   1.405       .  A
C1029      C1030   1.403   1_655  A
C1029      H1034   1.083       .  S
C1030      C1031   1.418       .  A
C1031      C1035   1.513       .  S
C1031      C1032   1.401       .  A
C1032      H1036   1.085       .  S
C1033      F1046   1.384       .  S
C1033      F1047   1.382       .  S
C1033      F1048   1.383       .  S
C1035      F1043   1.385       .  S
C1035      F1044   1.375       .  S
C1035      F1045   1.382       .  S
C1049      C1050   1.401       .  A
C1049      C1054   1.408       .  A
C1049      H1059   1.083       .  S
C1050      C1055   1.492       .  S
C1050      C1051   1.417   1_556  A
C1051      C1056   1.518       .  S
C1051      C1052   1.409       .  A
C1052      C1053   1.404   1_554  A
C1052      H1057   1.081       .  S
C1053      C1054   1.420       .  A
C1054      C1058   1.515       .  S
C1055      C1060   1.415       .  A
C1055      C1064   1.403   1_556  A
C1056      F1072   1.382       .  S
C1056      F1073   1.382       .  S
C1056      F1074   1.386       .  S
C1058      F1069   1.379       .  S
C1058      F1070   1.385       .  S
C1058      F1071   1.382       .  S
C1060      C1065   1.521       .  S
C1060      C1061   1.408       .  A
C1061      C1062   1.409       .  A
C1061      H1066   1.083       .  S
C1062      C1063   1.424   1_556  A
C1063      C1067   1.519       .  S
C1063      C1064   1.413       .  A
C1064      H1068   1.083       .  S
C1065      F1078   1.385       .  S
C1065      F1079   1.382       .  S
C1065      F1080   1.382       .  S
C1067      F1075   1.385       .  S
C1067      F1076   1.383   1_554  S
C1067      F1077   1.383       .  S
C1081      C1082   1.402   1_554  A
C1081      C1086   1.410       .  A
C1081      H1091   1.083       .  S
C1082      C1087   1.488       .  S
C1082      C1083   1.413       .  A
C1083      C1088   1.520       .  S
C1083      C1084   1.408       .  A
C1084      C1085   1.409       .  A
C1084      H1089   1.083       .  S
C1085      C1086   1.422   1_556  A
C1086      C1090   1.519       .  S
C1087      C1092   1.412       .  A
C1087      C1096   1.402       .  A
C1088      F1104   1.382       .  S
C1088      F1105   1.381       .  S
C1088      F1106   1.385       .  S
C1090      F1101   1.385       .  S
C1090      F1102   1.383       .  S
C1090      F1103   1.383       .  S
C1092      C1097   1.521   1_565  S
C1092      C1093   1.404       .  A
C1093      C1094   1.409       .  A
C1093      H1098   1.082   1_565  S
C1094      C1095   1.428       .  A
C1095      C1099   1.520       .  S
C1095      C1096   1.414       .  A
C1096      H1100   1.083       .  S
C1097      F1110   1.385       .  S
C1097      F1111   1.382   1_556  S
C1097      F1112   1.381       .  S
C1099      F1107   1.380       .  S
C1099      F1108   1.382       .  S
C1099      F1109   1.385       .  S
C1113      C1114   1.403       .  A
C1113      C1118   1.410       .  A
C1113      H1123   1.083       .  S
C1114      C1119   1.496       .  S
C1114      C1115   1.418       .  A
C1115      C1120   1.517       .  S
C1115      C1116   1.411       .  A
C1116      C1117   1.402       .  A
C1116      H1121   1.083       .  S
C1117      C1118   1.416       .  A
C1118      C1122   1.513       .  S
C1119      C1124   1.420       .  A
C1119      C1128   1.404       .  A
C1120      F1136   1.382       .  S
C1120      F1137   1.382   1_565  S
C1120      F1138   1.385   1_565  S
C1122      F1133   1.381       .  S
C1122      F1134   1.384       .  S
C1122      F1135   1.382       .  S
C1124      C1129   1.519   1_565  S
C1124      C1125   1.413       .  A
C1125      C1126   1.403       .  A
C1125      H1130   1.083   1_565  S
C1126      C1127   1.416       .  A
C1127      C1131   1.517       .  S
C1127      C1128   1.411       .  A
C1128      H1132   1.083       .  S
C1129      F1142   1.384       .  S
C1129      F1143   1.382   1_545  S
C1129      F1144   1.383       .  S
C1131      F1139   1.384       .  S
C1131      F1140   1.383       .  S
C1131      F1141   1.384       .  S
C1145      C1146   1.403       .  A
C1145      C1150   1.408       .  A
C1145      H1155   1.083   1_455  S
C1146      C1151   1.487       .  S
C1146      C1147   1.417       .  A
C1147      C1152   1.520       .  S
C1147      C1148   1.408       .  A
C1148      C1149   1.404       .  A
C1148      H1153   1.083       .  S
C1149      C1150   1.416       .  A
C1150      C1154   1.518   1_455  S
C1151      C1156   1.417       .  A
C1151      C1160   1.398   1_455  A
C1152      F1168   1.382       .  S
C1152      F1169   1.382       .  S
C1152      F1170   1.385       .  S
C1154      F1165   1.382   1_655  S
C1154      F1166   1.384       .  S
C1154      F1167   1.384       .  S
C1156      C1161   1.518       .  S
C1156      C1157   1.411       .  A
C1157      C1158   1.404       .  A
C1157      H1162   1.083       .  S
C1158      C1159   1.418   1_455  A
C1159      C1163   1.511       .  S
C1159      C1160   1.405       .  A
C1160      H1164   1.083       .  S
C1161      F1174   1.384       .  S
C1161      F1175   1.382       .  S
C1161      F1176   1.383       .  S
C1163      F1171   1.378       .  S
C1163      F1172   1.381       .  S
C1163      F1173   1.385       .  S
C1177      C1178   1.400       .  A
C1177      C1182   1.408       .  A
C1177      H1187   1.083       .  S
C1178      C1183   1.490       .  S
C1178      C1179   1.418   1_455  A
C1179      C1184   1.520       .  S
C1179      C1180   1.410       .  A
C1180      C1181   1.405   1_655  A
C1180      H1185   1.083       .  S
C1181      C1182   1.425       .  A
C1182      C1186   1.522       .  S
C1183      C1188   1.416       .  A
C1183      C1192   1.398       .  A
C1184      F1200   1.381       .  S
C1184      F1201   1.383       .  S
C1184      F1202   1.384       .  S
C1186      F1197   1.383       .  S
C1186      F1198   1.384       .  S
C1186      F1199   1.384       .  S
C1188      C1193   1.518       .  S
C1188      C1189   1.413       .  A
C1189      C1190   1.408       .  A
C1189      H1194   1.083       .  S
C1190      C1191   1.421       .  A
C1191      C1195   1.513       .  S
C1191      C1192   1.405       .  A
C1192      H1196   1.083       .  S
C1193      F1206   1.385       .  S
C1193      F1207   1.382       .  S
C1193      F1208   1.382       .  S
C1195      F1203   1.378       .  S
C1195      F1204   1.381   1_455  S
C1195      F1205   1.385       .  S
C1209      C1210   1.400       .  A
C1209      C1214   1.406       .  A
C1209      H1219   1.083       .  S
C1210      C1215   1.479       .  S
C1210      C1211   1.415       .  A
C1211      C1216   1.521       .  S
C1211      C1212   1.405       .  A
C1212      C1213   1.405       .  A
C1212      H1217   1.083       .  S
C1213      C1214   1.419       .  A
C1214      C1218   1.519       .  S
C1215      C1220   1.410       .  A
C1215      C1224   1.401       .  A
C1216      F1232   1.382       .  S
C1216      F1233   1.382       .  S
C1216      F1234   1.384       .  S
C1218      F1229   1.382   1_455  S
C1218      F1230   1.384       .  S
C1218      F1231   1.384       .  S
C1220      C1225   1.520   1_455  S
C1220      C1221   1.400       .  A
C1221      C1222   1.407       .  A
C1221      H1226   1.081   1_455  S
C1222      C1223   1.425       .  A
C1223      C1227   1.520       .  S
C1223      C1224   1.407       .  A
C1224      H1228   1.085       .  S
C1225      F1238   1.385       .  S
C1225      F1239   1.382       .  S
C1225      F1240   1.382       .  S
C1227      F1235   1.383       .  S
C1227      F1236   1.376       .  S
C1227      F1237   1.384       .  S
C1241      C1242   1.405       .  A
C1241      C1246   1.408   1_455  A
C1241      H1251   1.083   1_455  S
C1242      C1247   1.489       .  S
C1242      C1243   1.417       .  A
C1243      C1248   1.519       .  S
C1243      C1244   1.409       .  A
C1244      C1245   1.402       .  A
C1244      H1249   1.083       .  S
C1245      C1246   1.413   1_455  A
C1246      C1250   1.516       .  S
C1247      C1252   1.418       .  A
C1247      C1256   1.402       .  A
C1248      F1264   1.382       .  S
C1248      F1265   1.381       .  S
C1248      F1266   1.385       .  S
C1250      F1261   1.383       .  S
C1250      F1262   1.385       .  S
C1250      F1263   1.383       .  S
C1252      C1257   1.519   1_455  S
C1252      C1253   1.410       .  A
C1253      C1254   1.402       .  A
C1253      H1258   1.083       .  S
C1254      C1255   1.416       .  A
C1255      C1259   1.513       .  S
C1255      C1256   1.408       .  A
C1256      H1260   1.083       .  S
C1257      F1270   1.384       .  S
C1257      F1271   1.382       .  S
C1257      F1272   1.382   1_655  S
C1259      F1267   1.380       .  S
C1259      F1268   1.383       .  S
C1259      F1269   1.385       .  S
C1273      C1274   1.399       .  A
C1273      C1278   1.413       .  A
C1273      H1283   1.085       .  S
C1274      C1279   1.494       .  S
C1274      C1275   1.410       .  A
C1275      C1280   1.523       .  S
C1275      C1276   1.408       .  A
C1276      C1277   1.418       .  A
C1276      H1281   1.073       .  S
C1277      C1278   1.437       .  A
C1278      C1282   1.525       .  S
C1279      C1284   1.408       .  A
C1279      C1288   1.392       .  A
C1280      F1296   1.382       .  S
C1280      F1297   1.381       .  S
C1280      F1298   1.385       .  S
C1282      F1293   1.377   1_545  S
C1282      F1294   1.385       .  S
C1282      F1295   1.383   1_545  S
C1284      C1289   1.521       .  S
C1284      C1285   1.411       .  A
C1285      C1286   1.428       .  A
C1285      H1290   1.072       .  S
C1286      C1287   1.454       .  A
C1287      C1291   1.533       .  S
C1287      C1288   1.414       .  A
C1288      H1292   1.082       .  S
C1289      F1302   1.384       .  S
C1289      F1303   1.382       .  S
C1289      F1304   1.382       .  S
C1291      F1299   1.385       .  S
C1291      F1300   1.375       .  S
C1291      F1301   1.380       .  S
C1305      C1306   1.402       .  A
C1305      C1310   1.408       .  A
C1305      H1315   1.083       .  S
C1306      C1311   1.478       .  S
C1306      C1307   1.411       .  A
C1307      C1312   1.522       .  S
C1307      C1308   1.399       .  A
C1308      C1309   1.406       .  A
C1308      H1313   1.081       .  S
C1309      C1310   1.422       .  A
C1310      C1314   1.521       .  S
C1311      C1316   1.412       .  A
C1311      C1320   1.402   1_545  A
C1312      F1328   1.381   1_545  S
C1312      F1329   1.382       .  S
C1312      F1330   1.385       .  S
C1314      F1325   1.382       .  S
C1314      F1326   1.385   1_545  S
C1314      F1327   1.379   1_545  S
C1316      C1321   1.521       .  S
C1316      C1317   1.404       .  A
C1317      C1318   1.408   1_545  A
C1317      H1322   1.083       .  S
C1318      C1319   1.417       .  A
C1319      C1323   1.518       .  S
C1319      C1320   1.406       .  A
C1320      H1324   1.083       .  S
C1321      F1334   1.385       .  S
C1321      F1335   1.382       .  S
C1321      F1336   1.382       .  S
C1323      F1331   1.385       .  S
C1323      F1332   1.383       .  S
C1323      F1333   1.382       .  S
C1337      C1338   1.403       .  A
C1337      C1342   1.407       .  A
C1337      H1347   1.083       .  S
C1338      C1343   1.480       .  S
C1338      C1339   1.415       .  A
C1339      C1344   1.521   1_565  S
C1339      C1340   1.405       .  A
C1340      C1341   1.403       .  A
C1340      H1345   1.083       .  S
C1341      C1342   1.415       .  A
C1342      C1346   1.518       .  S
C1343      C1348   1.412       .  A
C1343      C1352   1.401   1_565  A
C1344      F1360   1.382       .  S
C1344      F1361   1.382   1_545  S
C1344      F1362   1.384       .  S
C1346      F1357   1.384       .  S
C1346      F1358   1.382       .  S
C1346      F1359   1.384       .  S
C1348      C1353   1.521       .  S
C1348      C1349   1.404       .  A
C1349      C1350   1.405   1_565  A
C1349      H1354   1.080       .  S
C1350      C1351   1.422       .  A
C1351      C1355   1.521       .  S
C1351      C1352   1.408       .  A
C1352      H1356   1.083       .  S
C1353      F1366   1.384       .  S
C1353      F1367   1.383       .  S
C1353      F1368   1.382       .  S
C1355      F1363   1.385       .  S
C1355      F1364   1.382       .  S
C1355      F1365   1.380       .  S
C1369      C1370   1.401       .  A
C1369      C1374   1.407       .  A
C1369      H1379   1.083       .  S
C1370      C1375   1.482       .  S
C1370      C1371   1.414       .  A
C1371      C1376   1.521       .  S
C1371      C1372   1.406       .  A
C1372      C1373   1.408       .  A
C1372      H1377   1.083       .  S
C1373      C1374   1.421       .  A
C1374      C1378   1.519       .  S
C1375      C1380   1.416       .  A
C1375      C1384   1.402       .  A
C1376      F1392   1.382       .  S
C1376      F1393   1.382       .  S
C1376      F1394   1.385       .  S
C1378      F1389   1.384       .  S
C1378      F1390   1.385       .  S
C1378      F1391   1.382       .  S
C1380      C1385   1.519       .  S
C1380      C1381   1.405       .  A
C1381      C1382   1.401       .  A
C1381      H1386   1.083       .  S
C1382      C1383   1.414       .  A
C1383      C1387   1.515       .  S
C1383      C1384   1.405       .  A
C1384      H1388   1.083       .  S
C1385      F1398   1.384       .  S
C1385      F1399   1.382       .  S
C1385      F1400   1.382       .  S
C1387      F1395   1.380       .  S
C1387      F1396   1.383       .  S
C1387      F1397   1.385       .  S
C1401      C1402   1.397       .  A
C1401      C1406   1.421       .  A
C1401      H1411   1.082       .  S
C1402      C1407   1.497       .  S
C1402      C1403   1.407       .  A
C1403      C1408   1.523       .  S
C1403      C1404   1.407       .  A
C1404      C1405   1.429       .  A
C1404      H1409   1.072       .  S
C1405      C1406   1.450       .  A
C1406      C1410   1.530       .  S
C1407      C1412   1.415       .  A
C1407      C1416   1.401       .  A
C1408      F1424   1.381       .  S
C1408      F1425   1.383       .  S
C1408      F1426   1.385       .  S
C1410      F1421   1.385       .  S
C1410      F1422   1.380       .  S
C1410      F1423   1.376       .  S
C1412      C1417   1.516       .  S
C1412      C1413   1.406       .  A
C1413      C1414   1.410       .  A
C1413      H1418   1.079       .  S
C1414      C1415   1.433       .  A
C1415      C1419   1.524       .  S
C1415      C1416   1.411       .  A
C1416      H1420   1.084       .  S
C1417      F1430   1.385       .  S
C1417      F1431   1.379       .  S
C1417      F1432   1.381       .  S
C1419      F1427   1.382       .  S
C1419      F1428   1.379       .  S
C1419      F1429   1.385       .  S
C1433      C1434   1.395       .  A
C1433      C1438   1.417       .  A
C1433      H1443   1.083       .  S
C1434      C1439   1.494       .  S
C1434      C1435   1.409       .  A
C1435      C1440   1.523       .  S
C1435      C1436   1.409       .  A
C1436      C1437   1.429       .  A
C1436      H1441   1.074       .  S
C1437      C1438   1.452       .  A
C1438      C1442   1.532       .  S
C1439      C1444   1.413       .  A
C1439      C1448   1.396       .  A
C1440      F1456   1.382       .  S
C1440      F1457   1.381       .  S
C1440      F1458   1.384       .  S
C1442      F1453   1.385       .  S
C1442      F1454   1.381       .  S
C1442      F1455   1.373       .  S
C1444      C1449   1.520       .  S
C1444      C1445   1.414       .  A
C1445      C1446   1.419       .  A
C1445      H1450   1.078       .  S
C1446      C1447   1.432       .  A
C1447      C1451   1.518       .  S
C1447      C1448   1.406       .  A
C1448      H1452   1.085       .  S
C1449      F1462   1.385       .  S
C1449      F1463   1.382       .  S
C1449      F1464   1.382       .  S
C1451      F1459   1.385       .  S
C1451      F1460   1.382       .  S
C1451      F1461   1.374       .  S
C1465      C1466   1.401       .  A
C1465      C1470   1.407       .  A
C1465      H1475   1.083       .  S
C1466      C1471   1.495       .  S
C1466      C1467   1.417       .  A
C1467      C1472   1.519       .  S
C1467      C1468   1.411       .  A
C1468      C1469   1.412       .  A
C1468      H1473   1.082       .  S
C1469      C1470   1.428       .  A
C1470      C1474   1.519       .  S
C1471      C1476   1.411       .  A
C1471      C1480   1.395       .  A
C1472      F1488   1.382       .  S
C1472      F1489   1.383       .  S
C1472      F1490   1.385       .  S
C1474      F1485   1.385       .  S
C1474      F1486   1.383       .  S
C1474      F1487   1.382       .  S
C1476      C1481   1.521       .  S
C1476      C1477   1.407       .  A
C1477      C1478   1.422       .  A
C1477      H1482   1.076       .  S
C1478      C1479   1.453       .  A
C1479      C1483   1.533       .  S
C1479      C1480   1.413       .  A
C1480      H1484   1.085       .  S
C1481      F1494   1.385       .  S
C1481      F1495   1.381       .  S
C1481      F1496   1.383       .  S
C1483      F1491   1.386       .  S
C1483      F1492   1.369       .  S
C1483      F1493   1.382       .  S
C1497      C1498   1.401       .  A
C1497      C1502   1.405       .  A
C1497      H1507   1.083       .  S
C1498      C1503   1.485       .  S
C1498      C1499   1.419       .  A
C1499      C1504   1.518       .  S
C1499      C1500   1.408       .  A
C1500      C1501   1.400       .  A
C1500      H1505   1.083       .  S
C1501      C1502   1.415       .  A
C1502      C1506   1.518       .  S
C1503      C1508   1.417       .  A
C1503      C1512   1.403       .  A
C1504      F1520   1.381       .  S
C1504      F1521   1.383       .  S
C1504      F1522   1.384       .  S
C1506      F1517   1.383       .  S
C1506      F1518   1.385       .  S
C1506      F1519   1.382       .  S
C1508      C1513   1.521       .  S
C1508      C1509   1.403       .  A
C1509      C1510   1.398       .  A
C1509      H1514   1.079       .  S
C1510      C1511   1.418       .  A
C1511      C1515   1.518       .  S
C1511      C1512   1.407       .  A
C1512      H1516   1.084       .  S
C1513      F1526   1.384       .  S
C1513      F1527   1.381       .  S
C1513      F1528   1.383       .  S
C1515      F1523   1.383       .  S
C1515      F1524   1.381       .  S
C1515      F1525   1.382       .  S
C1529      C1530   1.397       .  A
C1529      C1534   1.403       .  A
C1529      H1539   1.084       .  S
C1530      C1535   1.481       .  S
C1530      C1531   1.415       .  A
C1531      C1536   1.519       .  S
C1531      C1532   1.409       .  A
C1532      C1533   1.405       .  A
C1532      H1537   1.083       .  S
C1533      C1534   1.421       .  A
C1534      C1538   1.515       .  S
C1535      C1540   1.414       .  A
C1535      C1544   1.397       .  A
C1536      F1552   1.382       .  S
C1536      F1553   1.381       .  S
C1536      F1554   1.384       .  S
C1538      F1549   1.378       .  S
C1538      F1550   1.385       .  S
C1538      F1551   1.378       .  S
C1540      C1545   1.519       .  S
C1540      C1541   1.409       .  A
C1541      C1542   1.408       .  A
C1541      H1546   1.083       .  S
C1542      C1543   1.428       .  A
C1543      C1547   1.523       .  S
C1543      C1544   1.403       .  A
C1544      H1548   1.084       .  S
C1545      F1558   1.385       .  S
C1545      F1559   1.382       .  S
C1545      F1560   1.381       .  S
C1547      F1555   1.385       .  S
C1547      F1556   1.384       .  S
C1547      F1557   1.383       .  S
C1561      C1562   1.396       .  A
C1561      C1566   1.407       .  A
C1561      H1571   1.085       .  S
C1562      C1567   1.488       .  S
C1562      C1563   1.410       .  A
C1563      C1568   1.520       .  S
C1563      C1564   1.411       .  A
C1564      C1565   1.417       .  A
C1564      H1569   1.076       .  S
C1565      C1566   1.438       .  A
C1566      C1570   1.525       .  S
C1567      C1572   1.404       .  A
C1567      C1576   1.391       .  A
C1568      F1584   1.383       .  S
C1568      F1585   1.381       .  S
C1568      F1586   1.384       .  S
C1570      F1581   1.383       .  S
C1570      F1582   1.385       .  S
C1570      F1583   1.373       .  S
C1572      C1577   1.520       .  S
C1572      C1573   1.407       .  A
C1573      C1574   1.428       .  A
C1573      H1578   1.072       .  S
C1574      C1575   1.453       .  A
C1575      C1579   1.524       .  S
C1575      C1576   1.411       .  A
C1576      H1580   1.086       .  S
C1577      F1590   1.385       .  S
C1577      F1591   1.383       .  S
C1577      F1592   1.381       .  S
C1579      F1587   1.387       .  S
C1579      F1588   1.368       .  S
C1579      F1589   1.379       .  S
C1593      C1594   1.404       .  A
C1593      C1598   1.414       .  A
C1593      H1603   1.083       .  S
C1594      C1599   1.489       .  S
C1594      C1595   1.413   1_455  A
C1595      C1600   1.521       .  S
C1595      C1596   1.404       .  A
C1596      C1597   1.410   1_655  A
C1596      H1601   1.082       .  S
C1597      C1598   1.424       .  A
C1598      C1602   1.519       .  S
C1599      C1604   1.414   1_455  A
C1599      C1608   1.403       .  A
C1600      F1616   1.382       .  S
C1600      F1617   1.382       .  S
C1600      F1618   1.385       .  S
C1602      F1613   1.385       .  S
C1602      F1614   1.383       .  S
C1602      F1615   1.383       .  S
C1604      C1609   1.520       .  S
C1604      C1605   1.407       .  A
C1605      C1606   1.406       .  A
C1605      H1610   1.080       .  S
C1606      C1607   1.421   1_655  A
C1607      C1611   1.518       .  S
C1607      C1608   1.411       .  A
C1608      H1612   1.083       .  S
C1609      F1622   1.384       .  S
C1609      F1623   1.382   1_655  S
C1609      F1624   1.382       .  S
C1611      F1619   1.385       .  S
C1611      F1620   1.382       .  S
C1611      F1621   1.381   1_455  S
C1625      C1626   1.401       .  A
C1625      C1630   1.409       .  A
C1625      H1635   1.083       .  S
C1626      C1631   1.484       .  S
C1626      C1627   1.412   1_565  A
C1627      C1632   1.520       .  S
C1627      C1628   1.404       .  A
C1628      C1629   1.408   1_545  A
C1628      H1633   1.081       .  S
C1629      C1630   1.424       .  A
C1630      C1634   1.518       .  S
C1631      C1636   1.413       .  A
C1631      C1640   1.402       .  A
C1632      F1648   1.382       .  S
C1632      F1649   1.382       .  S
C1632      F1650   1.385       .  S
C1634      F1645   1.380       .  S
C1634      F1646   1.385       .  S
C1634      F1647   1.377       .  S
C1636      C1641   1.520       .  S
C1636      C1637   1.407       .  A
C1637      C1638   1.409       .  A
C1637      H1642   1.083       .  S
C1638      C1639   1.421       .  A
C1639      C1643   1.520   1_565  S
C1639      C1640   1.408       .  A
C1640      H1644   1.083       .  S
C1641      F1654   1.384       .  S
C1641      F1655   1.382       .  S
C1641      F1656   1.382       .  S
C1643      F1651   1.384   1_545  S
C1643      F1652   1.383       .  S
C1643      F1653   1.384       .  S
C1657      C1658   1.394       .  A
C1657      C1662   1.412       .  A
C1657      H1667   1.086       .  S
C1658      C1663   1.492       .  S
C1658      C1659   1.411       .  A
C1659      C1664   1.519       .  S
C1659      C1660   1.408       .  A
C1660      C1661   1.425       .  A
C1660      H1665   1.077       .  S
C1661      C1662   1.453       .  A
C1662      C1666   1.529       .  S
C1663      C1668   1.411       .  A
C1663      C1672   1.401       .  A
C1664      F1680   1.381       .  S
C1664      F1681   1.383       .  S
C1664      F1682   1.383       .  S
C1666      F1677   1.387       .  S
C1666      F1678   1.370       .  S
C1666      F1679   1.380       .  S
C1668      C1673   1.520       .  S
C1668      C1669   1.411       .  A
C1669      C1670   1.418       .  A
C1669      H1674   1.078       .  S
C1670      C1671   1.432       .  A
C1671      C1675   1.523       .  S
C1671      C1672   1.410       .  A
C1672      H1676   1.085       .  S
C1673      F1686   1.385       .  S
C1673      F1687   1.383       .  S
C1673      F1688   1.381       .  S
C1675      F1683   1.379       .  S
C1675      F1684   1.383   1_655  S
C1675      F1685   1.385       .  S
C1689      C1690   1.399       .  A
C1689      C1694   1.409       .  A
C1689      H1699   1.085       .  S
C1690      C1695   1.490       .  S
C1690      C1691   1.411       .  A
C1691      C1696   1.520       .  S
C1691      C1692   1.411       .  A
C1692      C1693   1.417       .  A
C1692      H1697   1.079       .  S
C1693      C1694   1.433       .  A
C1694      C1698   1.521       .  S
C1695      C1700   1.406       .  A
C1695      C1704   1.391       .  A
C1696      F1712   1.383       .  S
C1696      F1713   1.381       .  S
C1696      F1714   1.384       .  S
C1698      F1709   1.385       .  S
C1698      F1710   1.378       .  S
C1698      F1711   1.383   1_655  S
C1700      C1705   1.519       .  S
C1700      C1701   1.409       .  A
C1701      C1702   1.427       .  A
C1701      H1706   1.075       .  S
C1702      C1703   1.454       .  A
C1703      C1707   1.528       .  S
C1703      C1704   1.410       .  A
C1704      H1708   1.085       .  S
C1705      F1718   1.385       .  S
C1705      F1719   1.383       .  S
C1705      F1720   1.381       .  S
C1707      F1715   1.371       .  S
C1707      F1716   1.378       .  S
C1707      F1717   1.387       .  S
C1721      C1722   1.397       .  A
C1721      C1726   1.419       .  A
C1721      H1731   1.082       .  S
C1722      C1727   1.499       .  S
C1722      C1723   1.409       .  A
C1723      C1728   1.522       .  S
C1723      C1724   1.410       .  A
C1724      C1725   1.429       .  A
C1724      H1729   1.073       .  S
C1725      C1726   1.450       .  A
C1726      C1730   1.532       .  S
C1727      C1732   1.414       .  A
C1727      C1736   1.396       .  A
C1728      F1744   1.381       .  S
C1728      F1745   1.382       .  S
C1728      F1746   1.385       .  S
C1730      F1741   1.385       .  S
C1730      F1742   1.380       .  S
C1730      F1743   1.375       .  S
C1732      C1737   1.519       .  S
C1732      C1733   1.413       .  A
C1733      C1734   1.416       .  A
C1733      H1738   1.074       .  S
C1734      C1735   1.439       .  A
C1735      C1739   1.522       .  S
C1735      C1736   1.410       .  A
C1736      H1740   1.085       .  S
C1737      F1750   1.384       .  S
C1737      F1751   1.380       .  S
C1737      F1752   1.382       .  S
C1739      F1747   1.382       .  S
C1739      F1748   1.371       .  S
C1739      F1749   1.385       .  S
C1753      C1754   1.400       .  A
C1753      C1758   1.417       .  A
C1753      H1763   1.083       .  S
C1754      C1759   1.506       .  S
C1754      C1755   1.412       .  A
C1755      C1760   1.521       .  S
C1755      C1756   1.412       .  A
C1756      C1757   1.420       .  A
C1756      H1761   1.044       .  S
C1757      C1758   1.440       .  A
C1758      C1762   1.528       .  S
C1759      C1764   1.410       .  A
C1759      C1768   1.397       .  A
C1760      F1776   1.381       .  S
C1760      F1777   1.382       .  S
C1760      F1778   1.384       .  S
C1762      F1773   1.383       .  S
C1762      F1774   1.385       .  S
C1762      F1775   1.374       .  S
C1764      C1769   1.521       .  S
C1764      C1765   1.412       .  A
C1765      C1766   1.429       .  A
C1765      H1770   1.073       .  S
C1766      C1767   1.452       .  A
C1767      C1771   1.532       .  S
C1767      C1768   1.420       .  A
C1768      H1772   1.082       .  S
C1769      F1782   1.383       .  S
C1769      F1783   1.385       .  S
C1769      F1784   1.381       .  S
C1771      F1779   1.380       .  S
C1771      F1780   1.376       .  S
C1771      F1781   1.385       .  S
C1785      C1786   1.403       .  A
C1785      C1790   1.408       .  A
C1785      H1795   1.083       .  S
C1786      C1791   1.483       .  S
C1786      C1787   1.414       .  A
C1787      C1792   1.520       .  S
C1787      C1788   1.403       .  A
C1788      C1789   1.406       .  A
C1788      H1793   1.082       .  S
C1789      C1790   1.420       .  A
C1790      C1794   1.519       .  S
C1791      C1796   1.416       .  A
C1791      C1800   1.401       .  A
C1792      F1808   1.382       .  S
C1792      F1809   1.382       .  S
C1792      F1810   1.385       .  S
C1794      F1805   1.383       .  S
C1794      F1806   1.384       .  S
C1794      F1807   1.383       .  S
C1796      C1801   1.520       .  S
C1796      C1797   1.406       .  A
C1797      C1798   1.406       .  A
C1797      H1802   1.083       .  S
C1798      C1799   1.416       .  A
C1799      C1803   1.517       .  S
C1799      C1800   1.404       .  A
C1800      H1804   1.083       .  S
C1801      F1814   1.385       .  S
C1801      F1815   1.382       .  S
C1801      F1816   1.383       .  S
C1803      F1811   1.379       .  S
C1803      F1812   1.382       .  S
C1803      F1813   1.385       .  S
C1817      C1818   1.405       .  A
C1817      C1822   1.415       .  A
C1817      H1827   1.083       .  S
C1818      C1823   1.495       .  S
C1818      C1819   1.415       .  A
C1819      C1824   1.520       .  S
C1819      C1820   1.408       .  A
C1820      C1821   1.406       .  A
C1820      H1825   1.080       .  S
C1821      C1822   1.422       .  A
C1822      C1826   1.520       .  S
C1823      C1828   1.417       .  A
C1823      C1832   1.403       .  A
C1824      F1840   1.382       .  S
C1824      F1841   1.382       .  S
C1824      F1842   1.384       .  S
C1826      F1837   1.380       .  S
C1826      F1838   1.384       .  S
C1826      F1839   1.382       .  S
C1828      C1833   1.519       .  S
C1828      C1829   1.412       .  A
C1829      C1830   1.406       .  A
C1829      H1834   1.083       .  S
C1830      C1831   1.421       .  A
C1831      C1835   1.519       .  S
C1831      C1832   1.412       .  A
C1832      H1836   1.083       .  S
C1833      F1846   1.384       .  S
C1833      F1847   1.383       .  S
C1833      F1848   1.382       .  S
C1835      F1843   1.382       .  S
C1835      F1844   1.384       .  S
C1835      F1845   1.385       .  S
C1849      C1850   1.400       .  A
C1849      C1854   1.405       .  A
C1849      H1859   1.083       .  S
C1850      C1855   1.482       .  S
C1850      C1851   1.417       .  A
C1851      C1856   1.519       .  S
C1851      C1852   1.407       .  A
C1852      C1853   1.401       .  A
C1852      H1857   1.083       .  S
C1853      C1854   1.419       .  A
C1854      C1858   1.519       .  S
C1855      C1860   1.411       .  A
C1855      C1864   1.400       .  A
C1856      F1872   1.382       .  S
C1856      F1873   1.382       .  S
C1856      F1874   1.385       .  S
C1858      F1869   1.385       .  S
C1858      F1870   1.381       .  S
C1858      F1871   1.383       .  S
C1860      C1865   1.518       .  S
C1860      C1861   1.404       .  A
C1861      C1862   1.407       .  A
C1861      H1866   1.082       .  S
C1862      C1863   1.425       .  A
C1863      C1867   1.520       .  S
C1863      C1864   1.409       .  A
C1864      H1868   1.083       .  S
C1865      F1878   1.384       .  S
C1865      F1879   1.382       .  S
C1865      F1880   1.382       .  S
C1867      F1875   1.381       .  S
C1867      F1876   1.378       .  S
C1867      F1877   1.385       .  S
C1881      C1882   1.400       .  A
C1881      C1886   1.407       .  A
C1881      H1891   1.083       .  S
C1882      C1887   1.487       .  S
C1882      C1883   1.415       .  A
C1883      C1888   1.518       .  S
C1883      C1884   1.408       .  A
C1884      C1885   1.405       .  A
C1884      H1889   1.082       .  S
C1885      C1886   1.420       .  A
C1886      C1890   1.515       .  S
C1887      C1892   1.415       .  A
C1887      C1896   1.403       .  A
C1888      F1904   1.382       .  S
C1888      F1905   1.382       .  S
C1888      F1906   1.385       .  S
C1890      F1901   1.385       .  S
C1890      F1902   1.378       .  S
C1890      F1903   1.382       .  S
C1892      C1897   1.520       .  S
C1892      C1893   1.407       .  A
C1893      C1894   1.405       .  A
C1893      H1898   1.082       .  S
C1894      C1895   1.419       .  A
C1895      C1899   1.518       .  S
C1895      C1896   1.410       .  A
C1896      H1900   1.083       .  S
C1897      F1910   1.384       .  S
C1897      F1911   1.382       .  S
C1897      F1912   1.382       .  S
C1899      F1907   1.385       .  S
C1899      F1908   1.384       .  S
C1899      F1909   1.382       .  S
C1913      C1914   1.396       .  A
C1913      C1918   1.402       .  A
C1913      H1923   1.083       .  S
C1914      C1919   1.481       .  S
C1914      C1915   1.415   1_565  A
C1915      C1920   1.519       .  S
C1915      C1916   1.408       .  A
C1916      C1917   1.408       .  A
C1916      H1921   1.082       .  S
C1917      C1918   1.430   1_545  A
C1918      C1922   1.524       .  S
C1919      C1924   1.417   1_565  A
C1919      C1928   1.401       .  A
C1920      F1936   1.381       .  S
C1920      F1937   1.382       .  S
C1920      F1938   1.384       .  S
C1922      F1933   1.384       .  S
C1922      F1934   1.385       .  S
C1922      F1935   1.383       .  S
C1924      C1929   1.519       .  S
C1924      C1925   1.406   1_545  A
C1925      C1926   1.402       .  A
C1925      H1930   1.083   1_565  S
C1926      C1927   1.413       .  A
C1927      C1931   1.513       .  S
C1927      C1928   1.403       .  A
C1928      H1932   1.083       .  S
C1929      F1942   1.385       .  S
C1929      F1943   1.381       .  S
C1929      F1944   1.382       .  S
C1931      F1939   1.385       .  S
C1931      F1940   1.382       .  S
C1931      F1941   1.381       .  S
C1945      C1946   1.402       .  A
C1945      C1950   1.407       .  A
C1945      H1955   1.083       .  S
C1946      C1951   1.478       .  S
C1946      C1947   1.411       .  A
C1947      C1952   1.521       .  S
C1947      C1948   1.405       .  A
C1948      C1949   1.409       .  A
C1948      H1953   1.080       .  S
C1949      C1950   1.420       .  A
C1950      C1954   1.519       .  S
C1951      C1956   1.416       .  A
C1951      C1960   1.398       .  A
C1952      F1968   1.383       .  S
C1952      F1969   1.380       .  S
C1952      F1970   1.384       .  S
C1954      F1965   1.384       .  S
C1954      F1966   1.383       .  S
C1954      F1967   1.383       .  S
C1956      C1961   1.521       .  S
C1956      C1957   1.406       .  A
C1957      C1958   1.405       .  A
C1957      H1962   1.082       .  S
C1958      C1959   1.417       .  A
C1959      C1963   1.512       .  S
C1959      C1960   1.403       .  A
C1960      H1964   1.084       .  S
C1961      F1974   1.385       .  S
C1961      F1975   1.382       .  S
C1961      F1976   1.380       .  S
C1963      F1971   1.379       .  S
C1963      F1972   1.381       .  S
C1963      F1973   1.384       .  S
C1977      C1978   1.397       .  A
C1977      C1982   1.404       .  A
C1977      H1987   1.083       .  S
C1978      C1983   1.478       .  S
C1978      C1979   1.414       .  A
C1979      C1984   1.519       .  S
C1979      C1980   1.405       .  A
C1980      C1981   1.405       .  A
C1980      H1985   1.082       .  S
C1981      C1982   1.421       .  A
C1982      C1986   1.513       .  S
C1983      C1988   1.412       .  A
C1983      C1992   1.401       .  A
C1984      F2000   1.382       .  S
C1984      F2001   1.382       .  S
C1984      F2002   1.384       .  S
C1986      F1997   1.385       .  S
C1986      F1998   1.378       .  S
C1986      F1999   1.381       .  S
C1988      C1993   1.520       .  S
C1988      C1989   1.403       .  A
C1989      C1990   1.406       .  A
C1989      H1994   1.083       .  S
C1990      C1991   1.420       .  A
C1991      C1995   1.520       .  S
C1991      C1992   1.406       .  A
C1992      H1996   1.083       .  S
C1993      F2006   1.385       .  S
C1993      F2007   1.382       .  S
C1993      F2008   1.382       .  S
C1995      F2003   1.385       .  S
C1995      F2004   1.383       .  S
C1995      F2005   1.383       .  S
C2009      C2010   1.393       .  A
C2009      C2014   1.416       .  A
C2009      H2019   1.085       .  S
C2010      C2015   1.502       .  S
C2010      C2011   1.407       .  A
C2011      C2016   1.519       .  S
C2011      C2012   1.412       .  A
C2012      C2013   1.426       .  A
C2012      H2017   1.074       .  S
C2013      C2014   1.461       .  A
C2014      C2018   1.536       .  S
C2015      C2020   1.414       .  A
C2015      C2024   1.399       .  A
C2016      F2032   1.382       .  S
C2016      F2033   1.382       .  S
C2016      F2034   1.385       .  S
C2018      F2029   1.387       .  S
C2018      F2030   1.379       .  S
C2018      F2031   1.370       .  S
C2020      C2025   1.523       .  S
C2020      C2021   1.413       .  A
C2021      C2022   1.420       .  A
C2021      H2026   1.074       .  S
C2022      C2023   1.438       .  A
C2023      C2027   1.524       .  S
C2023      C2024   1.415       .  A
C2024      H2028   1.085       .  S
C2025      F2038   1.385       .  S
C2025      F2039   1.382       .  S
C2025      F2040   1.382       .  S
C2027      F2035   1.385       .  S
C2027      F2036   1.375       .  S
C2027      F2037   1.383       .  S
C2041      C2042   1.398       .  A
C2041      C2046   1.406       .  A
C2041      H2051   1.083       .  S
C2042      C2047   1.487       .  S
C2042      C2043   1.416       .  A
C2043      C2048   1.518       .  S
C2043      C2044   1.410       .  A
C2044      C2045   1.404       .  A
C2044      H2049   1.082       .  S
C2045      C2046   1.420       .  A
C2046      C2050   1.511       .  S
C2047      C2052   1.413       .  A
C2047      C2056   1.404       .  A
C2048      F2064   1.383       .  S
C2048      F2065   1.381       .  S
C2048      F2066   1.384       .  S
C2050      F2061   1.385       .  S
C2050      F2062   1.379       .  S
C2050      F2063   1.382       .  S
C2052      C2057   1.519       .  S
C2052      C2053   1.406       .  A
C2053      C2054   1.407       .  A
C2053      H2058   1.083       .  S
C2054      C2055   1.421       .  A
C2055      C2059   1.519       .  S
C2055      C2056   1.412       .  A
C2056      H2060   1.083       .  S
C2057      F2070   1.384       .  S
C2057      F2071   1.382       .  S
C2057      F2072   1.382       .  S
C2059      F2067   1.383       .  S
C2059      F2068   1.383       .  S
C2059      F2069   1.385       .  S
C2073      C2074   1.400       .  A
C2073      C2078   1.407       .  A
C2073      H2083   1.083       .  S
C2074      C2079   1.482       .  S
C2074      C2075   1.416       .  A
C2075      C2080   1.519       .  S
C2075      C2076   1.407       .  A
C2076      C2077   1.403       .  A
C2076      H2081   1.083       .  S
C2077      C2078   1.421       .  A
C2078      C2082   1.520       .  S
C2079      C2084   1.414       .  A
C2079      C2088   1.399       .  A
C2080      F2096   1.382       .  S
C2080      F2097   1.382       .  S
C2080      F2098   1.384       .  S
C2082      F2093   1.385       .  S
C2082      F2094   1.383       .  S
C2082      F2095   1.384       .  S
C2084      C2089   1.520       .  S
C2084      C2085   1.408       .  A
C2085      C2086   1.407       .  A
C2085      H2090   1.083       .  S
C2086      C2087   1.417       .  A
C2087      C2091   1.513       .  S
C2087      C2088   1.405       .  A
C2088      H2092   1.084       .  S
C2089      F2102   1.384       .  S
C2089      F2103   1.382       .  S
C2089      F2104   1.382       .  S
C2091      F2099   1.384       .  S
C2091      F2100   1.382       .  S
C2091      F2101   1.379       .  S
C2105      C2106   1.402       .  A
C2105      C2110   1.411       .  A
C2105      H2115   1.083       .  S
C2106      C2111   1.492       .  S
C2106      C2107   1.417       .  A
C2107      C2112   1.519       .  S
C2107      C2108   1.409       .  A
C2108      C2109   1.406       .  A
C2108      H2113   1.083       .  S
C2109      C2110   1.424       .  A
C2110      C2114   1.521       .  S
C2111      C2116   1.413       .  A
C2111      C2120   1.403       .  A
C2112      F2128   1.382       .  S
C2112      F2129   1.383       .  S
C2112      F2130   1.385       .  S
C2114      F2125   1.383       .  S
C2114      F2126   1.385       .  S
C2114      F2127   1.383       .  S
C2116      C2121   1.520       .  S
C2116      C2117   1.406       .  A
C2117      C2118   1.408       .  A
C2117      H2122   1.079       .  S
C2118      C2119   1.425       .  A
C2119      C2123   1.518       .  S
C2119      C2120   1.413       .  A
C2120      H2124   1.083       .  S
C2121      F2134   1.383       .  S
C2121      F2135   1.382       .  S
C2121      F2136   1.383       .  S
C2123      F2131   1.381       .  S
C2123      F2132   1.380       .  S
C2123      F2133   1.385       .  S
C2137      C2138   1.398       .  A
C2137      C2142   1.405       .  A
C2137      H2147   1.084       .  S
C2138      C2143   1.483       .  S
C2138      C2139   1.415       .  A
C2139      C2144   1.519       .  S
C2139      C2140   1.409       .  A
C2140      C2141   1.405       .  A
C2140      H2145   1.082       .  S
C2141      C2142   1.419       .  A
C2142      C2146   1.511       .  S
C2143      C2148   1.413       .  A
C2143      C2152   1.404       .  A
C2144      F2160   1.383       .  S
C2144      F2161   1.382       .  S
C2144      F2162   1.384       .  S
C2146      F2157   1.385       .  S
C2146      F2158   1.378       .  S
C2146      F2159   1.382       .  S
C2148      C2153   1.520       .  S
C2148      C2149   1.403       .  A
C2149      C2150   1.406       .  A
C2149      H2154   1.083       .  S
C2150      C2151   1.419       .  A
C2151      C2155   1.518       .  S
C2151      C2152   1.410       .  A
C2152      H2156   1.083       .  S
C2153      F2166   1.385       .  S
C2153      F2167   1.382       .  S
C2153      F2168   1.382       .  S
C2155      F2163   1.383       .  S
C2155      F2164   1.383       .  S
C2155      F2165   1.385       .  S
C2169      C2170   1.398       .  A
C2169      C2174   1.404       .  A
C2169      H2179   1.083       .  S
C2170      C2175   1.487       .  S
C2170      C2171   1.417       .  A
C2171      C2176   1.518       .  S
C2171      C2172   1.411       .  A
C2172      C2173   1.405       .  A
C2172      H2177   1.083       .  S
C2173      C2174   1.420       .  A
C2174      C2178   1.514       .  S
C2175      C2180   1.414       .  A
C2175      C2184   1.400       .  A
C2176      F2192   1.382       .  S
C2176      F2193   1.382       .  S
C2176      F2194   1.385       .  S
C2178      F2189   1.385       .  S
C2178      F2190   1.381       .  S
C2178      F2191   1.383       .  S
C2180      C2185   1.519       .  S
C2180      C2181   1.407       .  A
C2181      C2182   1.406       .  A
C2181      H2186   1.082       .  S
C2182      C2183   1.426       .  A
C2183      C2187   1.519       .  S
C2183      C2184   1.409       .  A
C2184      H2188   1.083       .  S
C2185      F2198   1.384       .  S
C2185      F2199   1.382       .  S
C2185      F2200   1.383       .  S
C2187      F2195   1.380       .  S
C2187      F2196   1.381       .  S
C2187      F2197   1.385       .  S
C2201      C2202   1.400       .  A
C2201      C2206   1.405       .  A
C2201      H2211   1.084       .  S
C2202      C2207   1.487       .  S
C2202      C2203   1.417       .  A
C2203      C2208   1.518       .  S
C2203      C2204   1.409       .  A
C2204      C2205   1.405       .  A
C2204      H2209   1.083       .  S
C2205      C2206   1.420       .  A
C2206      C2210   1.517       .  S
C2207      C2212   1.418       .  A
C2207      C2216   1.401       .  A
C2208      F2224   1.382       .  S
C2208      F2225   1.382       .  S
C2208      F2226   1.385       .  S
C2210      F2221   1.385       .  S
C2210      F2222   1.380       .  S
C2210      F2223   1.380       .  S
C2212      C2217   1.519       .  S
C2212      C2213   1.410       .  A
C2213      C2214   1.402       .  A
C2213      H2218   1.083       .  S
C2214      C2215   1.418       .  A
C2215      C2219   1.518       .  S
C2215      C2216   1.407       .  A
C2216      H2220   1.083       .  S
C2217      F2230   1.384       .  S
C2217      F2231   1.382       .  S
C2217      F2232   1.382       .  S
C2219      F2227   1.382       .  S
C2219      F2228   1.384       .  S
C2219      F2229   1.385       .  S
C2233      C2234   1.402       .  A
C2233      C2238   1.406       .  A
C2233      H2243   1.083       .  S
C2234      C2239   1.479       .  S
C2234      C2235   1.414       .  A
C2235      C2240   1.520       .  S
C2235      C2236   1.404       .  A
C2236      C2237   1.404       .  A
C2236      H2241   1.083       .  S
C2237      C2238   1.416       .  A
C2238      C2242   1.518       .  S
C2239      C2244   1.408       .  A
C2239      C2248   1.399       .  A
C2240      F2256   1.382       .  S
C2240      F2257   1.382       .  S
C2240      F2258   1.385       .  S
C2242      F2253   1.382       .  S
C2242      F2254   1.385       .  S
C2242      F2255   1.383       .  S
C2244      C2249   1.521       .  S
C2244      C2245   1.399       .  A
C2245      C2246   1.411       .  A
C2245      H2250   1.077       .  S
C2246      C2247   1.430       .  A
C2247      C2251   1.520       .  S
C2247      C2248   1.411       .  A
C2248      H2252   1.083       .  S
C2249      F2262   1.385       .  S
C2249      F2263   1.383       .  S
C2249      F2264   1.382       .  S
C2251      F2259   1.385       .  S
C2251      F2260   1.377       .  S
C2251      F2261   1.381       .  S
C2265      C2266   1.396       .  A
C2265      C2270   1.408       .  A
C2265      H2275   1.085       .  S
C2266      C2271   1.490       .  S
C2266      C2267   1.410       .  A
C2267      C2272   1.520       .  S
C2267      C2268   1.411       .  A
C2268      C2269   1.418       .  A
C2268      H2273   1.077       .  S
C2269      C2270   1.438       .  A
C2270      C2274   1.524       .  S
C2271      C2276   1.406       .  A
C2271      C2280   1.395       .  A
C2272      F2288   1.383       .  S
C2272      F2289   1.381       .  S
C2272      F2290   1.384       .  S
C2274      F2285   1.383       .  S
C2274      F2286   1.385       .  S
C2274      F2287   1.375       .  S
C2276      C2281   1.521       .  S
C2276      C2277   1.409       .  A
C2277      C2278   1.424       .  A
C2277      H2282   1.073       .  S
C2278      C2279   1.452       .  A
C2279      C2283   1.528       .  S
C2279      C2280   1.414       .  A
C2280      H2284   1.085       .  S
C2281      F2294   1.384       .  S
C2281      F2295   1.382       .  S
C2281      F2296   1.381       .  S
C2283      F2291   1.387       .  S
C2283      F2292   1.370       .  S
C2283      F2293   1.380       .  S
C2297      C2298   1.397       .  A
C2297      C2302   1.407       .  A
C2297      H2307   1.083       .  S
C2298      C2303   1.487       .  S
C2298      C2299   1.415       .  A
C2299      C2304   1.520       .  S
C2299      C2300   1.411       .  A
C2300      C2301   1.410       .  A
C2300      H2305   1.082       .  S
C2301      C2302   1.430       .  A
C2302      C2306   1.522       .  S
C2303      C2308   1.418       .  A
C2303      C2312   1.402       .  A
C2304      F2320   1.382       .  S
C2304      F2321   1.383       .  S
C2304      F2322   1.384       .  S
C2306      F2317   1.383       .  S
C2306      F2318   1.385       .  S
C2306      F2319   1.383       .  S
C2308      C2313   1.519       .  S
C2308      C2309   1.409       .  A
C2309      C2310   1.403       .  A
C2309      H2314   1.083       .  S
C2310      C2311   1.413       .  A
C2311      C2315   1.512       .  S
C2311      C2312   1.405       .  A
C2312      H2316   1.083       .  S
C2313      F2326   1.385       .  S
C2313      F2327   1.382       .  S
C2313      F2328   1.382       .  S
C2315      F2323   1.384       .  S
C2315      F2324   1.383       .  S
C2315      F2325   1.378       .  S
C2329      C2330   1.399       .  A
C2329      C2334   1.403       .  A
C2329      H2339   1.084       .  S
C2330      C2335   1.485       .  S
C2330      C2331   1.415       .  A
C2331      C2336   1.518   1_556  S
C2331      C2332   1.411       .  A
C2332      C2333   1.406       .  A
C2332      H2337   1.083   1_556  S
C2333      C2334   1.417       .  A
C2334      C2338   1.512       .  S
C2335      C2340   1.417       .  A
C2335      C2344   1.404   1_556  A
C2336      F2352   1.382       .  S
C2336      F2353   1.382   1_554  S
C2336      F2354   1.385       .  S
C2338      F2349   1.385       .  S
C2338      F2350   1.379       .  S
C2338      F2351   1.382       .  S
C2340      C2345   1.522       .  S
C2340      C2341   1.405       .  A
C2341      C2342   1.403   1_556  A
C2341      H2346   1.083       .  S
C2342      C2343   1.416       .  A
C2343      C2347   1.518       .  S
C2343      C2344   1.410       .  A
C2344      H2348   1.083       .  S
C2345      F2358   1.385       .  S
C2345      F2359   1.382       .  S
C2345      F2360   1.381       .  S
C2347      F2355   1.385       .  S
C2347      F2356   1.384       .  S
C2347      F2357   1.382       .  S
C2361      C2362   1.401       .  A
C2361      C2366   1.408       .  A
C2361      H2371   1.084       .  S
C2362      C2367   1.484       .  S
C2362      C2363   1.412   1_565  A
C2363      C2368   1.521       .  S
C2363      C2364   1.404       .  A
C2364      C2365   1.408   1_545  A
C2364      H2369   1.079       .  S
C2365      C2366   1.425       .  A
C2366      C2370   1.519       .  S
C2367      C2372   1.416       .  A
C2367      C2376   1.400       .  A
C2368      F2384   1.382       .  S
C2368      F2385   1.382       .  S
C2368      F2386   1.384       .  S
C2370      F2381   1.385       .  S
C2370      F2382   1.382       .  S
C2370      F2383   1.380       .  S
C2372      C2377   1.519       .  S
C2372      C2373   1.409       .  A
C2373      C2374   1.405       .  A
C2373      H2378   1.083       .  S
C2374      C2375   1.419       .  A
C2375      C2379   1.521   1_565  S
C2375      C2376   1.405       .  A
C2376      H2380   1.083       .  S
C2377      F2390   1.385       .  S
C2377      F2391   1.382       .  S
C2377      F2392   1.382   1_565  S
C2379      F2387   1.382   1_545  S
C2379      F2388   1.383       .  S
C2379      F2389   1.385       .  S
C2393      C2394   1.396   1_545  A
C2393      C2398   1.400       .  A
C2393      H2403   1.084       .  S
C2394      C2399   1.479       .  S
C2394      C2395   1.415       .  A
C2395      C2400   1.518       .  S
C2395      C2396   1.409       .  A
C2396      C2397   1.405       .  A
C2396      H2401   1.080       .  S
C2397      C2398   1.416   1_565  A
C2398      C2402   1.505       .  S
C2399      C2404   1.413       .  A
C2399      C2408   1.393       .  A
C2400      F2416   1.383       .  S
C2400      F2417   1.381       .  S
C2400      F2418   1.384       .  S
C2402      F2413   1.378       .  S
C2402      F2414   1.385       .  S
C2402      F2415   1.383       .  S
C2404      C2409   1.520   1_565  S
C2404      C2405   1.410   1_565  A
C2405      C2406   1.410   1_545  A
C2405      H2410   1.082       .  S
C2406      C2407   1.433       .  A
C2407      C2411   1.525       .  S
C2407      C2408   1.403       .  A
C2408      H2412   1.083       .  S
C2409      F2422   1.384       .  S
C2409      F2423   1.383       .  S
C2409      F2424   1.381   1_545  S
C2411      F2419   1.385       .  S
C2411      F2420   1.384       .  S
C2411      F2421   1.382       .  S
C2425      C2426   1.392       .  A
C2425      C2430   1.420       .  A
C2425      H2435   1.082       .  S
C2426      C2431   1.495       .  S
C2426      C2427   1.404       .  A
C2427      C2432   1.523       .  S
C2427      C2428   1.406       .  A
C2428      C2429   1.430       .  A
C2428      H2433   1.073       .  S
C2429      C2430   1.463       .  A
C2430      C2434   1.537       .  S
C2431      C2436   1.410       .  A
C2431      C2440   1.394       .  A
C2432      F2448   1.382       .  S
C2432      F2449   1.381       .  S
C2432      F2450   1.384       .  S
C2434      F2445   1.385       .  S
C2434      F2446   1.370       .  S
C2434      F2447   1.376       .  S
C2436      C2441   1.523       .  S
C2436      C2437   1.412       .  A
C2437      C2438   1.422       .  A
C2437      H2442   1.072       .  S
C2438      C2439   1.441       .  A
C2439      C2443   1.522       .  S
C2439      C2440   1.412       .  A
C2440      H2444   1.085       .  S
C2441      F2454   1.384       .  S
C2441      F2455   1.382       .  S
C2441      F2456   1.382       .  S
C2443      F2451   1.383       .  S
C2443      F2452   1.373       .  S
C2443      F2453   1.385       .  S
C2457      C2458   1.392       .  A
C2457      C2462   1.412       .  A
C2457      H2467   1.085       .  S
C2458      C2463   1.485       .  S
C2458      C2459   1.403       .  A
C2459      C2464   1.521       .  S
C2459      C2460   1.406       .  A
C2460      C2461   1.429       .  A
C2460      H2465   1.078       .  S
C2461      C2462   1.460       .  A
C2462      C2466   1.532       .  S
C2463      C2468   1.409       .  A
C2463      C2472   1.394       .  A
C2464      F2480   1.382       .  S
C2464      F2481   1.382       .  S
C2464      F2482   1.385       .  S
C2466      F2477   1.387       .  S
C2466      F2478   1.363       .  S
C2466      F2479   1.381       .  S
C2468      C2473   1.520       .  S
C2468      C2469   1.409       .  A
C2469      C2470   1.418       .  A
C2469      H2474   1.074       .  S
C2470      C2471   1.438       .  A
C2471      C2475   1.523       .  S
C2471      C2472   1.406       .  A
C2472      H2476   1.085       .  S
C2473      F2486   1.384       .  S
C2473      F2487   1.382       .  S
C2473      F2488   1.382       .  S
C2475      F2483   1.385       .  S
C2475      F2484   1.371       .  S
C2475      F2485   1.382       .  S
C2489      C2490   1.395       .  A
C2489      C2494   1.418       .  A
C2489      H2499   1.083       .  S
C2490      C2495   1.498       .  S
C2490      C2491   1.409       .  A
C2491      C2496   1.521       .  S
C2491      C2492   1.410       .  A
C2492      C2493   1.424       .  A
C2492      H2497   1.075       .  S
C2493      C2494   1.452       .  A
C2494      C2498   1.525       .  S
C2495      C2500   1.410       .  A
C2495      C2504   1.397       .  A
C2496      F2512   1.382       .  S
C2496      F2513   1.383       .  S
C2496      F2514   1.384       .  S
C2498      F2509   1.385       .  S
C2498      F2510   1.378       .  S
C2498      F2511   1.370       .  S
C2500      C2505   1.520       .  S
C2500      C2501   1.408       .  A
C2501      C2502   1.419       .  A
C2501      H2506   1.073       .  S
C2502      C2503   1.442       .  A
C2503      C2507   1.526       .  S
C2503      C2504   1.416       .  A
C2504      H2508   1.083       .  S
C2505      F2518   1.385       .  S
C2505      F2519   1.382       .  S
C2505      F2520   1.382       .  S
C2507      F2515   1.381       .  S
C2507      F2516   1.375       .  S
C2507      F2517   1.385       .  S
C2521      C2522   1.400       .  A
C2521      C2526   1.405       .  A
C2521      H2531   1.083       .  S
C2522      C2527   1.483       .  S
C2522      C2523   1.417       .  A
C2523      C2528   1.520       .  S
C2523      C2524   1.408       .  A
C2524      C2525   1.404       .  A
C2524      H2529   1.083       .  S
C2525      C2526   1.419       .  A
C2526      C2530   1.519       .  S
C2527      C2532   1.415       .  A
C2527      C2536   1.399       .  A
C2528      F2544   1.382       .  S
C2528      F2545   1.383       .  S
C2528      F2546   1.384       .  S
C2530      F2541   1.385       .  S
C2530      F2542   1.382       .  S
C2530      F2543   1.384       .  S
C2532      C2537   1.519       .  S
C2532      C2533   1.407       .  A
C2533      C2534   1.405       .  A
C2533      H2538   1.082       .  S
C2534      C2535   1.419       .  A
C2535      C2539   1.513       .  S
C2535      C2536   1.405       .  A
C2536      H2540   1.083       .  S
C2537      F2550   1.384       .  S
C2537      F2551   1.382       .  S
C2537      F2552   1.382       .  S
C2539      F2547   1.385       .  S
C2539      F2548   1.381       .  S
C2539      F2549   1.379       .  S
C2553      C2554   1.398       .  A
C2553      C2558   1.400       .  A
C2553      H2563   1.083       .  S
C2554      C2559   1.476       .  S
C2554      C2555   1.416       .  A
C2555      C2560   1.519       .  S
C2555      C2556   1.407       .  A
C2556      C2557   1.402       .  A
C2556      H2561   1.083       .  S
C2557      C2558   1.415       .  A
C2558      C2562   1.517       .  S
C2559      C2564   1.413       .  A
C2559      C2568   1.398       .  A
C2560      F2576   1.383       .  S
C2560      F2577   1.382       .  S
C2560      F2578   1.385       .  S
C2562      F2573   1.384       .  S
C2562      F2574   1.382       .  S
C2562      F2575   1.379       .  S
C2564      C2569   1.519       .  S
C2564      C2565   1.404       .  A
C2565      C2566   1.404       .  A
C2565      H2570   1.080       .  S
C2566      C2567   1.416       .  A
C2567      C2571   1.509       .  S
C2567      C2568   1.403       .  A
C2568      H2572   1.083       .  S
C2569      F2582   1.385       .  S
C2569      F2583   1.382       .  S
C2569      F2584   1.382       .  S
C2571      F2579   1.385       .  S
C2571      F2580   1.382       .  S
C2571      F2581   1.379       .  S
C2585      C2586   1.399       .  A
C2585      C2590   1.407       .  A
C2585      H2595   1.083       .  S
C2586      C2591   1.482       .  S
C2586      C2587   1.412       .  A
C2587      C2592   1.519       .  S
C2587      C2588   1.405       .  A
C2588      C2589   1.406       .  A
C2588      H2593   1.082       .  S
C2589      C2590   1.424       .  A
C2590      C2594   1.516       .  S
C2591      C2596   1.415       .  A
C2591      C2600   1.399       .  A
C2592      F2608   1.383       .  S
C2592      F2609   1.382       .  S
C2592      F2610   1.385       .  S
C2594      F2605   1.385       .  S
C2594      F2606   1.381       .  S
C2594      F2607   1.373       .  S
C2596      C2601   1.519       .  S
C2596      C2597   1.406       .  A
C2597      C2598   1.405       .  A
C2597      H2602   1.083       .  S
C2598      C2599   1.423       .  A
C2599      C2603   1.520       .  S
C2599      C2600   1.406       .  A
C2600      H2604   1.083       .  S
C2601      F2614   1.385       .  S
C2601      F2615   1.382       .  S
C2601      F2616   1.382       .  S
C2603      F2611   1.385       .  S
C2603      F2612   1.383       .  S
C2603      F2613   1.383       .  S
C2617      C2618   1.397       .  A
C2617      C2622   1.408       .  A
C2617      H2627   1.083       .  S
C2618      C2623   1.489       .  S
C2618      C2619   1.417       .  A
C2619      C2624   1.519       .  S
C2619      C2620   1.409       .  A
C2620      C2621   1.407       .  A
C2620      H2625   1.082       .  S
C2621      C2622   1.431       .  A
C2622      C2626   1.523       .  S
C2623      C2628   1.418       .  A
C2623      C2632   1.402       .  A
C2624      F2640   1.382       .  S
C2624      F2641   1.383       .  S
C2624      F2642   1.384       .  S
C2626      F2637   1.384       .  S
C2626      F2638   1.385       .  S
C2626      F2639   1.383       .  S
C2628      C2633   1.519       .  S
C2628      C2629   1.410       .  A
C2629      C2630   1.403       .  A
C2629      H2634   1.083       .  S
C2630      C2631   1.414       .  A
C2631      C2635   1.512       .  S
C2631      C2632   1.406       .  A
C2632      H2636   1.083       .  S
C2633      F2646   1.385       .  S
C2633      F2647   1.382       .  S
C2633      F2648   1.383       .  S
C2635      F2643   1.384       .  S
C2635      F2644   1.383       .  S
C2635      F2645   1.381       .  S
C2649      C2650   1.397       .  A
C2649      C2654   1.411       .  A
C2649      H2659   1.085       .  S
C2650      C2655   1.494       .  S
C2650      C2651   1.412       .  A
C2651      C2656   1.520       .  S
C2651      C2652   1.410       .  A
C2652      C2653   1.417       .  A
C2652      H2657   1.075       .  S
C2653      C2654   1.437       .  A
C2654      C2658   1.522       .  S
C2655      C2660   1.403       .  A
C2655      C2664   1.390       .  A
C2656      F2672   1.382       .  S
C2656      F2673   1.381       .  S
C2656      F2674   1.384       .  S
C2658      F2669   1.381       .  S
C2658      F2670   1.386       .  S
C2658      F2671   1.376       .  S
C2660      C2665   1.519       .  S
C2660      C2661   1.408       .  A
C2661      C2662   1.433       .  A
C2661      H2666   1.081       .  S
C2662      C2663   1.465       .  A
C2663      C2667   1.536       .  S
C2663      C2664   1.418       .  A
C2664      H2668   1.082       .  S
C2665      F2678   1.385       .  S
C2665      F2679   1.383       .  S
C2665      F2680   1.381       .  S
C2667      F2675   1.386       .  S
C2667      F2676   1.379       .  S
C2667      F2677   1.373       .  S
C2681      C2682   1.401   1_455  A
C2681      C2686   1.404       .  A
C2681      H2691   1.083       .  S
C2682      C2687   1.479       .  S
C2682      C2683   1.415       .  A
C2683      C2688   1.519       .  S
C2683      C2684   1.406       .  A
C2684      C2685   1.402       .  A
C2684      H2689   1.083       .  S
C2685      C2686   1.412   1_655  A
C2686      C2690   1.514       .  S
C2687      C2692   1.418   1_655  A
C2687      C2696   1.401       .  A
C2688      F2704   1.382       .  S
C2688      F2705   1.383       .  S
C2688      F2706   1.384       .  S
C2690      F2701   1.381       .  S
C2690      F2702   1.384       .  S
C2690      F2703   1.383       .  S
C2692      C2697   1.520       .  S
C2692      C2693   1.405       .  A
C2693      C2694   1.399       .  A
C2693      H2698   1.083       .  S
C2694      C2695   1.414   1_455  A
C2695      C2699   1.519       .  S
C2695      C2696   1.404       .  A
C2696      H2700   1.083       .  S
C2697      F2710   1.384       .  S
C2697      F2711   1.382       .  S
C2697      F2712   1.383       .  S
C2699      F2707   1.384       .  S
C2699      F2708   1.383       .  S
C2699      F2709   1.383       .  S
C2713      C2714   1.399       .  A
C2713      C2718   1.408       .  A
C2713      H2723   1.083       .  S
C2714      C2719   1.479       .  S
C2714      C2715   1.409       .  A
C2715      C2720   1.519       .  S
C2715      C2716   1.403       .  A
C2716      C2717   1.410       .  A
C2716      H2721   1.082       .  S
C2717      C2718   1.424       .  A
C2718      C2722   1.514       .  S
C2719      C2724   1.415       .  A
C2719      C2728   1.396       .  A
C2720      F2736   1.382       .  S
C2720      F2737   1.382       .  S
C2720      F2738   1.382       .  S
C2722      F2733   1.385       .  S
C2722      F2734   1.382       .  S
C2722      F2735   1.378       .  S
C2724      C2729   1.520       .  S
C2724      C2725   1.408       .  A
C2725      C2726   1.407       .  A
C2725      H2730   1.083       .  S
C2726      C2727   1.426       .  A
C2727      C2731   1.521       .  S
C2727      C2728   1.403       .  A
C2728      H2732   1.083       .  S
C2729      F2742   1.384       .  S
C2729      F2743   1.382       .  S
C2729      F2744   1.382       .  S
C2731      F2739   1.384       .  S
C2731      F2740   1.383       .  S
C2731      F2741   1.383       .  S
C2745      C2746   1.403       .  A
C2745      C2750   1.409       .  A
C2745      H2755   1.083       .  S
C2746      C2751   1.484       .  S
C2746      C2747   1.413       .  A
C2747      C2752   1.521       .  S
C2747      C2748   1.406       .  A
C2748      C2749   1.409       .  A
C2748      H2753   1.082       .  S
C2749      C2750   1.420       .  A
C2750      C2754   1.518       .  S
C2751      C2756   1.415       .  A
C2751      C2760   1.401       .  A
C2752      F2768   1.382       .  S
C2752      F2769   1.381       .  S
C2752      F2770   1.385       .  S
C2754      F2765   1.385       .  S
C2754      F2766   1.384       .  S
C2754      F2767   1.382       .  S
C2756      C2761   1.520       .  S
C2756      C2757   1.407       .  A
C2757      C2758   1.404       .  A
C2757      H2762   1.083       .  S
C2758      C2759   1.418       .  A
C2759      C2763   1.517       .  S
C2759      C2760   1.407       .  A
C2760      H2764   1.083       .  S
C2761      F2774   1.384       .  S
C2761      F2775   1.382       .  S
C2761      F2776   1.381       .  S
C2763      F2771   1.385       .  S
C2763      F2772   1.382       .  S
C2763      F2773   1.381       .  S
C2777      C2778   1.403       .  A
C2777      C2782   1.415       .  A
C2777      H2787   1.083       .  S
C2778      C2783   1.492       .  S
C2778      C2779   1.412       .  A
C2779      C2784   1.521       .  S
C2779      C2780   1.407       .  A
C2780      C2781   1.413       .  A
C2780      H2785   1.082       .  S
C2781      C2782   1.427       .  A
C2782      C2786   1.519       .  S
C2783      C2788   1.418       .  A
C2783      C2792   1.404       .  A
C2784      F2800   1.382       .  S
C2784      F2801   1.382       .  S
C2784      F2802   1.385       .  S
C2786      F2797   1.385       .  S
C2786      F2798   1.383       .  S
C2786      F2799   1.383       .  S
C2788      C2793   1.519       .  S
C2788      C2789   1.410       .  A
C2789      C2790   1.403       .  A
C2789      H2794   1.083       .  S
C2790      C2791   1.416       .  A
C2791      C2795   1.515       .  S
C2791      C2792   1.410       .  A
C2792      H2796   1.083       .  S
C2793      F2806   1.385       .  S
C2793      F2807   1.382       .  S
C2793      F2808   1.382       .  S
C2795      F2803   1.381       .  S
C2795      F2804   1.382       .  S
C2795      F2805   1.384       .  S
C2809      C2810   1.402       .  A
C2809      C2814   1.408       .  A
C2809      H2819   1.083       .  S
C2810      C2815   1.479       .  S
C2810      C2811   1.412       .  A
C2811      C2816   1.521       .  S
C2811      C2812   1.403       .  A
C2812      C2813   1.407       .  A
C2812      H2817   1.083       .  S
C2813      C2814   1.419       .  A
C2814      C2818   1.519       .  S
C2815      C2820   1.410       .  A
C2815      C2824   1.401       .  A
C2816      F2832   1.382       .  S
C2816      F2833   1.382       .  S
C2816      F2834   1.384       .  S
C2818      F2829   1.383       .  S
C2818      F2830   1.385       .  S
C2818      F2831   1.384       .  S
C2820      C2825   1.520       .  S
C2820      C2821   1.401       .  A
C2821      C2822   1.407       .  A
C2821      H2826   1.082       .  S
C2822      C2823   1.426       .  A
C2823      C2827   1.523       .  S
C2823      C2824   1.409       .  A
C2824      H2828   1.083       .  S
C2825      F2838   1.385       .  S
C2825      F2839   1.382       .  S
C2825      F2840   1.382       .  S
C2827      F2835   1.385       .  S
C2827      F2836   1.380       .  S
C2827      F2837   1.382       .  S
C2841      C2842   1.399       .  A
C2841      C2846   1.404       .  A
C2841      H2851   1.083       .  S
C2842      C2847   1.485       .  S
C2842      C2843   1.418       .  A
C2843      C2848   1.517       .  S
C2843      C2844   1.408       .  A
C2844      C2845   1.402       .  A
C2844      H2849   1.083       .  S
C2845      C2846   1.421       .  A
C2846      C2850   1.521       .  S
C2847      C2852   1.414       .  A
C2847      C2856   1.403       .  A
C2848      F2864   1.382       .  S
C2848      F2865   1.382       .  S
C2848      F2866   1.384       .  S
C2850      F2861   1.384       .  S
C2850      F2862   1.385       .  S
C2850      F2863   1.382       .  S
C2852      C2857   1.519       .  S
C2852      C2853   1.404       .  A
C2853      C2854   1.403       .  A
C2853      H2858   1.081       .  S
C2854      C2855   1.420       .  A
C2855      C2859   1.521       .  S
C2855      C2856   1.408       .  A
C2856      H2860   1.083       .  S
C2857      F2870   1.385       .  S
C2857      F2871   1.382       .  S
C2857      F2872   1.382       .  S
C2859      F2867   1.385       .  S
C2859      F2868   1.380       .  S
C2859      F2869   1.382       .  S
C2873      C2874   1.404       .  A
C2873      C2878   1.413       .  A
C2873      H2883   1.083       .  S
C2874      C2879   1.491       .  S
C2874      C2875   1.414       .  A
C2875      C2880   1.521       .  S
C2875      C2876   1.403       .  A
C2876      C2877   1.408       .  A
C2876      H2881   1.081       .  S
C2877      C2878   1.424       .  A
C2878      C2882   1.520       .  S
C2879      C2884   1.415       .  A
C2879      C2888   1.403       .  A
C2880      F2896   1.382       .  S
C2880      F2897   1.382       .  S
C2880      F2898   1.385       .  S
C2882      F2893   1.382       .  S
C2882      F2894   1.385       .  S
C2882      F2895   1.381       .  S
C2884      C2889   1.521       .  S
C2884      C2885   1.408       .  A
C2885      C2886   1.410       .  A
C2885      H2890   1.083       .  S
C2886      C2887   1.422       .  A
C2887      C2891   1.517       .  S
C2887      C2888   1.411       .  A
C2888      H2892   1.083       .  S
C2889      F2902   1.384       .  S
C2889      F2903   1.382       .  S
C2889      F2904   1.383       .  S
C2891      F2899   1.385       .  S
C2891      F2900   1.383       .  S
C2891      F2901   1.383       .  S
C2905      C2906   1.396       .  A
C2905      C2910   1.400       .  A
C2905      H2915   1.085       .  S
C2906      C2911   1.485       .  S
C2906      C2907   1.416       .  A
C2907      C2912   1.517       .  S
C2907      C2908   1.412       .  A
C2908      C2909   1.408       .  A
C2908      H2913   1.083       .  S
C2909      C2910   1.422       .  A
C2910      C2914   1.513       .  S
C2911      C2916   1.415       .  A
C2911      C2920   1.402       .  A
C2912      F2928   1.382       .  S
C2912      F2929   1.382       .  S
C2912      F2930   1.384       .  S
C2914      F2925   1.385       .  S
C2914      F2926   1.382       .  S
C2914      F2927   1.375       .  S
C2916      C2921   1.522       .  S
C2916      C2917   1.406       .  A
C2917      C2918   1.407       .  A
C2917      H2922   1.083       .  S
C2918      C2919   1.422       .  A
C2919      C2923   1.520       .  S
C2919      C2920   1.409       .  A
C2920      H2924   1.083       .  S
C2921      F2934   1.385       .  S
C2921      F2935   1.381       .  S
C2921      F2936   1.381       .  S
C2923      F2931   1.384       .  S
C2923      F2932   1.383       .  S
C2923      F2933   1.385       .  S
C2937      C2938   1.403       .  A
C2937      C2942   1.417       .  A
C2937      H2947   1.084       .  S
C2938      C2943   1.508       .  S
C2938      C2939   1.416       .  A
C2939      C2944   1.518       .  S
C2939      C2940   1.412       .  A
C2940      C2941   1.415       .  A
C2940      H2945   1.079       .  S
C2941      C2942   1.435       .  A
C2942      C2946   1.521       .  S
C2943      C2948   1.410       .  A
C2943      C2952   1.397       .  A
C2944      F2960   1.380       .  S
C2944      F2961   1.382       .  S
C2944      F2962   1.385       .  S
C2946      F2957   1.385       .  S
C2946      F2958   1.382       .  S
C2946      F2959   1.380       .  S
C2948      C2953   1.520       .  S
C2948      C2949   1.412       .  A
C2949      C2950   1.429       .  A
C2949      H2954   1.076       .  S
C2950      C2951   1.452       .  A
C2951      C2955   1.524       .  S
C2951      C2952   1.423       .  A
C2952      H2956   1.082       .  S
C2953      F2966   1.385       .  S
C2953      F2967   1.381       .  S
C2953      F2968   1.383       .  S
C2955      F2963   1.377       .  S
C2955      F2964   1.367       .  S
C2955      F2965   1.385       .  S
C2969      C2970   1.402       .  A
C2969      C2974   1.412       .  A
C2969      H2979   1.083       .  S
C2970      C2975   1.489       .  S
C2970      C2971   1.413       .  A
C2971      C2976   1.520       .  S
C2971      C2972   1.405       .  A
C2972      C2973   1.409       .  A
C2972      H2977   1.081       .  S
C2973      C2974   1.427       .  A
C2974      C2978   1.522       .  S
C2975      C2980   1.419       .  A
C2975      C2984   1.399       .  A
C2976      F2992   1.382       .  S
C2976      F2993   1.382       .  S
C2976      F2994   1.385       .  S
C2978      F2989   1.385       .  S
C2978      F2990   1.382       .  S
C2978      F2991   1.382       .  S
C2980      C2985   1.518       .  S
C2980      C2981   1.412       .  A
C2981      C2982   1.402       .  A
C2981      H2986   1.083       .  S
C2982      C2983   1.418       .  A
C2983      C2987   1.515       .  S
C2983      C2984   1.405       .  A
C2984      H2988   1.083       .  S
C2985      F2998   1.385       .  S
C2985      F2999   1.382       .  S
C2985      F3000   1.381       .  S
C2987      F2995   1.385       .  S
C2987      F2996   1.381       .  S
C2987      F2997   1.384       .  S
C3001      C3002   1.403       .  A
C3001      C3006   1.409       .  A
C3001      H3011   1.083       .  S
C3002      C3007   1.490       .  S
C3002      C3003   1.417       .  A
C3003      C3008   1.519       .  S
C3003      C3004   1.410       .  A
C3004      C3005   1.403       .  A
C3004      H3009   1.083       .  S
C3005      C3006   1.415       .  A
C3006      C3010   1.516       .  S
C3007      C3012   1.417       .  A
C3007      C3016   1.405       .  A
C3008      F3024   1.382       .  S
C3008      F3025   1.382       .  S
C3008      F3026   1.384       .  S
C3010      F3021   1.384       .  S
C3010      F3022   1.381       .  S
C3010      F3023   1.383       .  S
C3012      C3017   1.520       .  S
C3012      C3013   1.409       .  A
C3013      C3014   1.404       .  A
C3013      H3018   1.083       .  S
C3014      C3015   1.415       .  A
C3015      C3019   1.517       .  S
C3015      C3016   1.411       .  A
C3016      H3020   1.083       .  S
C3017      F3030   1.385       .  S
C3017      F3031   1.382       .  S
C3017      F3032   1.382       .  S
C3019      F3027   1.384       .  S
C3019      F3028   1.384       .  S
C3019      F3029   1.382       .  S
C3033      C3034   1.387       .  A
C3033      C3038   1.409       .  A
C3033      H3043   1.086       .  S
C3034      C3039   1.492       .  S
C3034      C3035   1.405       .  A
C3035      C3040   1.522       .  S
C3035      C3036   1.411       .  A
C3036      C3037   1.434       .  A
C3036      H3041   1.073       .  S
C3037      C3038   1.456       .  A
C3038      C3042   1.519       .  S
C3039      C3044   1.412       .  A
C3039      C3048   1.395       .  A
C3040      F3056   1.382       .  S
C3040      F3057   1.383       .  S
C3040      F3058   1.384       .  S
C3042      F3053   1.385       .  S
C3042      F3054   1.384       .  S
C3042      F3055   1.355       .  S
C3044      C3049   1.521       .  S
C3044      C3045   1.411       .  A
C3045      C3046   1.417       .  A
C3045      H3050   1.075       .  S
C3046      C3047   1.439       .  A
C3047      C3051   1.522       .  S
C3047      C3048   1.408       .  A
C3048      H3052   1.085       .  S
C3049      F3062   1.384       .  S
C3049      F3063   1.382       .  S
C3049      F3064   1.382       .  S
C3051      F3059   1.383       .  S
C3051      F3060   1.371       .  S
C3051      F3061   1.385       .  S
C3065      C3066   1.407       .  A
C3065      C3070   1.414       .  A
C3065      H3075   1.083       .  S
C3066      C3071   1.490       .  S
C3066      C3067   1.413       .  A
C3067      C3072   1.520       .  S
C3067      C3068   1.405       .  A
C3068      C3069   1.407       .  A
C3068      H3073   1.083       .  S
C3069      C3070   1.418       .  A
C3070      C3074   1.517       .  S
C3071      C3076   1.418       .  A
C3071      C3080   1.399       .  A
C3072      F3088   1.382       .  S
C3072      F3089   1.381       .  S
C3072      F3090   1.383       .  S
C3074      F3085   1.385       .  S
C3074      F3086   1.382       .  S
C3074      F3087   1.383       .  S
C3076      C3081   1.518       .  S
C3076      C3077   1.411       .  A
C3077      C3078   1.404       .  A
C3077      H3082   1.082       .  S
C3078      C3079   1.419       .  A
C3079      C3083   1.514       .  S
C3079      C3080   1.405       .  A
C3080      H3084   1.083       .  S
C3081      F3094   1.385       .  S
C3081      F3095   1.382       .  S
C3081      F3096   1.382       .  S
C3083      F3091   1.378       .  S
C3083      F3092   1.381       .  S
C3083      F3093   1.385       .  S
C3097      C3098   1.401       .  A
C3097      C3102   1.405       .  A
C3097      H3107   1.083       .  S
C3098      C3103   1.484       .  S
C3098      C3099   1.416       .  A
C3099      C3104   1.519       .  S
C3099      C3100   1.407       .  A
C3100      C3101   1.404       .  A
C3100      H3105   1.083       .  S
C3101      C3102   1.415       .  A
C3102      C3106   1.514       .  S
C3103      C3108   1.415       .  A
C3103      C3112   1.402       .  A
C3104      F3120   1.382       .  S
C3104      F3121   1.382       .  S
C3104      F3122   1.384       .  S
C3106      F3117   1.384       .  S
C3106      F3118   1.379       .  S
C3106      F3119   1.383       .  S
C3108      C3113   1.520       .  S
C3108      C3109   1.405       .  A
C3109      C3110   1.404       .  A
C3109      H3114   1.083       .  S
C3110      C3111   1.419       .  A
C3111      C3115   1.519       .  S
C3111      C3112   1.408       .  A
C3112      H3116   1.083       .  S
C3113      F3126   1.385       .  S
C3113      F3127   1.381       .  S
C3113      F3128   1.383       .  S
C3115      F3123   1.385       .  S
C3115      F3124   1.383       .  S
C3115      F3125   1.383       .  S
C3129      C3130   1.401       .  A
C3129      C3134   1.408       .  A
C3129      H3139   1.083       .  S
C3130      C3135   1.477       .  S
C3130      C3131   1.410       .  A
C3131      C3136   1.520       .  S
C3131      C3132   1.400       .  A
C3132      C3133   1.407       .  A
C3132      H3137   1.081       .  S
C3133      C3134   1.423       .  A
C3134      C3138   1.520       .  S
C3135      C3140   1.418       .  A
C3135      C3144   1.400       .  A
C3136      F3152   1.382       .  S
C3136      F3153   1.382       .  S
C3136      F3154   1.385       .  S
C3138      F3149   1.385       .  S
C3138      F3150   1.382       .  S
C3138      F3151   1.379       .  S
C3140      C3145   1.519       .  S
C3140      C3141   1.405       .  A
C3141      C3142   1.399       .  A
C3141      H3146   1.083       .  S
C3142      C3143   1.415       .  A
C3143      C3147   1.520       .  S
C3143      C3144   1.402       .  A
C3144      H3148   1.083       .  S
C3145      F3158   1.385       .  S
C3145      F3159   1.382       .  S
C3145      F3160   1.383       .  S
C3147      F3155   1.382       .  S
C3147      F3156   1.384       .  S
C3147      F3157   1.384       .  S
C3161      C3162   1.400       .  A
C3161      C3166   1.408       .  A
C3161      H3171   1.085       .  S
C3162      C3167   1.493       .  S
C3162      C3163   1.417       .  A
C3163      C3168   1.519       .  S
C3163      C3164   1.407       .  A
C3164      C3165   1.412       .  A
C3164      H3169   1.083       .  S
C3165      C3166   1.434       .  A
C3166      C3170   1.522       .  S
C3167      C3172   1.409       .  A
C3167      C3176   1.393       .  A
C3168      F3184   1.382       .  S
C3168      F3185   1.384       .  S
C3168      F3186   1.385       .  S
C3170      F3181   1.386       .  S
C3170      F3182   1.383       .  S
C3170      F3183   1.382       .  S
C3172      C3177   1.520       .  S
C3172      C3173   1.405       .  A
C3173      C3174   1.427       .  A
C3173      H3178   1.081       .  S
C3174      C3175   1.468       .  A
C3175      C3179   1.543       .  S
C3175      C3176   1.413       .  A
C3176      H3180   1.085       .  S
C3177      F3190   1.384       .  S
C3177      F3191   1.383       .  S
C3177      F3192   1.382       .  S
C3179      F3187   1.380       .  S
C3179      F3188   1.369       .  S
C3179      F3189   1.387       .  S
C3193      C3194   1.400   1_556  A
C3193      C3198   1.405       .  A
C3193      H3203   1.084       .  S
C3194      C3199   1.486       .  S
C3194      C3195   1.417       .  A
C3195      C3200   1.519       .  S
C3195      C3196   1.409       .  A
C3196      C3197   1.404       .  A
C3196      H3201   1.083       .  S
C3197      C3198   1.417   1_554  A
C3198      C3202   1.514       .  S
C3199      C3204   1.417   1_554  A
C3199      C3208   1.398       .  A
C3200      F3216   1.382       .  S
C3200      F3217   1.381       .  S
C3200      F3218   1.385       .  S
C3202      F3213   1.381       .  S
C3202      F3214   1.385       .  S
C3202      F3215   1.382       .  S
C3204      C3209   1.520       .  S
C3204      C3205   1.412       .  A
C3205      C3206   1.407       .  A
C3205      H3210   1.083       .  S
C3206      C3207   1.425   1_556  A
C3207      C3211   1.521       .  S
C3207      C3208   1.406       .  A
C3208      H3212   1.083       .  S
C3209      F3222   1.384       .  S
C3209      F3223   1.383       .  S
C3209      F3224   1.381   1_556  S
C3211      F3219   1.385   1_554  S
C3211      F3220   1.384   1_554  S
C3211      F3221   1.382       .  S
C3225      C3226   1.399       .  A
C3225      C3230   1.405       .  A
C3225      H3235   1.084       .  S
C3226      C3231   1.477       .  S
C3226      C3227   1.411       .  A
C3227      C3232   1.520       .  S
C3227      C3228   1.405       .  A
C3228      C3229   1.409       .  A
C3228      H3233   1.082       .  S
C3229      C3230   1.421       .  A
C3230      C3234   1.517       .  S
C3231      C3236   1.414       .  A
C3231      C3240   1.399       .  A
C3232      F3248   1.383       .  S
C3232      F3249   1.381       .  S
C3232      F3250   1.384       .  S
C3234      F3245   1.385       .  S
C3234      F3246   1.382       .  S
C3234      F3247   1.379       .  S
C3236      C3241   1.520       .  S
C3236      C3237   1.404       .  A
C3237      C3238   1.404       .  A
C3237      H3242   1.083       .  S
C3238      C3239   1.423       .  A
C3239      C3243   1.522       .  S
C3239      C3240   1.405       .  A
C3240      H3244   1.083       .  S
C3241      F3254   1.384       .  S
C3241      F3255   1.382       .  S
C3241      F3256   1.381       .  S
C3243      F3251   1.383       .  S
C3243      F3252   1.384       .  S
C3243      F3253   1.385       .  S
C3257      C3258   1.399       .  A
C3257      C3262   1.411       .  A
C3257      H3267   1.085       .  S
C3258      C3263   1.490       .  S
C3258      C3259   1.408       .  A
C3259      C3264   1.523       .  S
C3259      C3260   1.406       .  A
C3260      C3261   1.419       .  A
C3260      H3265   1.072       .  S
C3261      C3262   1.438       .  A
C3262      C3266   1.526       .  S
C3263      C3268   1.407       .  A
C3263      C3272   1.396       .  A
C3264      F3280   1.382       .  S
C3264      F3281   1.382       .  S
C3264      F3282   1.384   1_554  S
C3266      F3277   1.376       .  S
C3266      F3278   1.384       .  S
C3266      F3279   1.383       .  S
C3268      C3273   1.524       .  S
C3268      C3269   1.405       .  A
C3269      C3270   1.425       .  A
C3269      H3274   1.066       .  S
C3270      C3271   1.453       .  A
C3271      C3275   1.531       .  S
C3271      C3272   1.416       .  A
C3272      H3276   1.081       .  S
C3273      F3286   1.385       .  S
C3273      F3287   1.382       .  S
C3273      F3288   1.382       .  S
C3275      F3283   1.386       .  S
C3275      F3284   1.373       .  S
C3275      F3285   1.380       .  S
C3289      C3290   1.399       .  A
C3289      C3294   1.406       .  A
C3289      H3299   1.083       .  S
C3290      C3295   1.486       .  S
C3290      C3291   1.417   1_554  A
C3291      C3296   1.518       .  S
C3291      C3292   1.410       .  A
C3292      C3293   1.403   1_556  A
C3292      H3297   1.083       .  S
C3293      C3294   1.419       .  A
C3294      C3298   1.516       .  S
C3295      C3300   1.415       .  A
C3295      C3304   1.400       .  A
C3296      F3312   1.383       .  S
C3296      F3313   1.382       .  S
C3296      F3314   1.385       .  S
C3298      F3309   1.384       .  S
C3298      F3310   1.384       .  S
C3298      F3311   1.379       .  S
C3300      C3305   1.518       .  S
C3300      C3301   1.408       .  A
C3301      C3302   1.406       .  A
C3301      H3306   1.083       .  S
C3302      C3303   1.419       .  A
C3303      C3307   1.514       .  S
C3303      C3304   1.407       .  A
C3304      H3308   1.084       .  S
C3305      F3318   1.384       .  S
C3305      F3319   1.383       .  S
C3305      F3320   1.382   1_554  S
C3307      F3315   1.382       .  S
C3307      F3316   1.380       .  S
C3307      F3317   1.385       .  S
C3321      C3322   1.395   1_554  A
C3321      C3326   1.405       .  A
C3321      H3331   1.083       .  S
C3322      C3327   1.485       .  S
C3322      C3323   1.414       .  A
C3323      C3328   1.519   1_455  S
C3323      C3324   1.410       .  A
C3324      C3325   1.411       .  A
C3324      H3329   1.082   1_455  S
C3325      C3326   1.432   1_556  A
C3326      C3330   1.524       .  S
C3327      C3332   1.416       .  A
C3327      C3336   1.401   1_556  A
C3328      F3344   1.382       .  S
C3328      F3345   1.383       .  S
C3328      F3346   1.385       .  S
C3330      F3341   1.384   1_554  S
C3330      F3342   1.385       .  S
C3330      F3343   1.383       .  S
C3332      C3337   1.520       .  S
C3332      C3333   1.407       .  A
C3333      C3334   1.402   1_556  A
C3333      H3338   1.081       .  S
C3334      C3335   1.420       .  A
C3335      C3339   1.519       .  S
C3335      C3336   1.405       .  A
C3336      H3340   1.085       .  S
C3337      F3350   1.384       .  S
C3337      F3351   1.382       .  S
C3337      F3352   1.382       .  S
C3339      F3347   1.384       .  S
C3339      F3348   1.379       .  S
C3339      F3349   1.383   1_455  S
C3353      C3354   1.401       .  A
C3353      C3358   1.410   1_455  A
C3353      H3363   1.083   1_455  S
C3354      C3359   1.485       .  S
C3354      C3355   1.411       .  A
C3355      C3360   1.520       .  S
C3355      C3356   1.406       .  A
C3356      C3357   1.412       .  A
C3356      H3361   1.082       .  S
C3357      C3358   1.425   1_455  A
C3358      C3362   1.520       .  S
C3359      C3364   1.413       .  A
C3359      C3368   1.403       .  A
C3360      F3376   1.382       .  S
C3360      F3377   1.382       .  S
C3360      F3378   1.385       .  S
C3362      F3373   1.384       .  S
C3362      F3374   1.385       .  S
C3362      F3375   1.383       .  S
C3364      C3369   1.521       .  S
C3364      C3365   1.404       .  A
C3365      C3366   1.403       .  A
C3365      H3370   1.076       .  S
C3366      C3367   1.419       .  A
C3367      C3371   1.516       .  S
C3367      C3368   1.411       .  A
C3368      H3372   1.083       .  S
C3369      F3382   1.383       .  S
C3369      F3383   1.382       .  S
C3369      F3384   1.381       .  S
C3371      F3379   1.385       .  S
C3371      F3380   1.381   1_455  S
C3371      F3381   1.380       .  S
C3385      C3386   1.392       .  A
C3385      C3390   1.418       .  A
C3385      H3395   1.082       .  S
C3386      C3391   1.495       .  S
C3386      C3387   1.403       .  A
C3387      C3392   1.520       .  S
C3387      C3388   1.409       .  A
C3388      C3389   1.435       .  A
C3388      H3393   1.081       .  S
C3389      C3390   1.459       .  A
C3390      C3394   1.529       .  S
C3391      C3396   1.413       .  A
C3391      C3400   1.399       .  A
C3392      F3408   1.383       .  S
C3392      F3409   1.382       .  S
C3392      F3410   1.384       .  S
C3394      F3405   1.386       .  S
C3394      F3406   1.375       .  S
C3394      F3407   1.378       .  S
C3396      C3401   1.522       .  S
C3396      C3397   1.410       .  A
C3397      C3398   1.416       .  A
C3397      H3402   1.077       .  S
C3398      C3399   1.436       .  A
C3399      C3403   1.524       .  S
C3399      C3400   1.412       .  A
C3400      H3404   1.085       .  S
C3401      F3414   1.384       .  S
C3401      F3415   1.382       .  S
C3401      F3416   1.381       .  S
C3403      F3411   1.378   1_554  S
C3403      F3412   1.383   1_554  S
C3403      F3413   1.385       .  S
C3417      C3418   1.395       .  A
C3417      C3422   1.411       .  A
C3417      H3427   1.085       .  S
C3418      C3423   1.497       .  S
C3418      C3419   1.414       .  A
C3419      C3424   1.520       .  S
C3419      C3420   1.412       .  A
C3420      C3421   1.417       .  A
C3420      H3425   1.077       .  S
C3421      C3422   1.438       .  A
C3422      C3426   1.518       .  S
C3423      C3428   1.405       .  A
C3423      C3432   1.394       .  A
C3424      F3440   1.382       .  S
C3424      F3441   1.382       .  S
C3424      F3442   1.384       .  S
C3426      F3437   1.382       .  S
C3426      F3438   1.385       .  S
C3426      F3439   1.373       .  S
C3428      C3433   1.520       .  S
C3428      C3429   1.408       .  A
C3429      C3430   1.424       .  A
C3429      H3434   1.069       .  S
C3430      C3431   1.457       .  A
C3431      C3435   1.533       .  S
C3431      C3432   1.416       .  A
C3432      H3436   1.085       .  S
C3433      F3446   1.385       .  S
C3433      F3447   1.383       .  S
C3433      F3448   1.382       .  S
C3435      F3443   1.381       .  S
C3435      F3444   1.369       .  S
C3435      F3445   1.387       .  S
C3449      C3450   1.401       .  A
C3449      C3454   1.412       .  A
C3449      H3459   1.083       .  S
C3450      C3455   1.489       .  S
C3450      C3451   1.412       .  A
C3451      C3456   1.520       .  S
C3451      C3452   1.406       .  A
C3452      C3453   1.409       .  A
C3452      H3457   1.081       .  S
C3453      C3454   1.429       .  A
C3454      C3458   1.521       .  S
C3455      C3460   1.416       .  A
C3455      C3464   1.404   1_545  A
C3456      F3472   1.382   1_545  S
C3456      F3473   1.383       .  S
C3456      F3474   1.384       .  S
C3458      F3469   1.380       .  S
C3458      F3470   1.385       .  S
C3458      F3471   1.378       .  S
C3460      C3465   1.519       .  S
C3460      C3461   1.407       .  A
C3461      C3462   1.405   1_545  A
C3461      H3466   1.083       .  S
C3462      C3463   1.417       .  A
C3463      C3467   1.518       .  S
C3463      C3464   1.410       .  A
C3464      H3468   1.083       .  S
C3465      F3478   1.385       .  S
C3465      F3479   1.382       .  S
C3465      F3480   1.383       .  S
C3467      F3475   1.382       .  S
C3467      F3476   1.384       .  S
C3467      F3477   1.385       .  S
C3481      C3482   1.403       .  A
C3481      C3486   1.408       .  A
C3481      H3491   1.083       .  S
C3482      C3487   1.490       .  S
C3482      C3483   1.417   1_565  A
C3483      C3488   1.518       .  S
C3483      C3484   1.408       .  A
C3484      C3485   1.402   1_545  A
C3484      H3489   1.083       .  S
C3485      C3486   1.416       .  A
C3486      C3490   1.515       .  S
C3487      C3492   1.414       .  A
C3487      C3496   1.397   1_565  A
C3488      F3504   1.382       .  S
C3488      F3505   1.382       .  S
C3488      F3506   1.385       .  S
C3490      F3501   1.380       .  S
C3490      F3502   1.385       .  S
C3490      F3503   1.383       .  S
C3492      C3497   1.520       .  S
C3492      C3493   1.411       .  A
C3493      C3494   1.412       .  A
C3493      H3498   1.082       .  S
C3494      C3495   1.434   1_565  A
C3495      C3499   1.523       .  S
C3495      C3496   1.410       .  A
C3496      H3500   1.083       .  S
C3497      F3510   1.384       .  S
C3497      F3511   1.383       .  S
C3497      F3512   1.382       .  S
C3499      F3507   1.385       .  S
C3499      F3508   1.384       .  S
C3499      F3509   1.383       .  S
C3513      C3514   1.396       .  A
C3513      C3518   1.398       .  A
C3513      H3523   1.085       .  S
C3514      C3519   1.476       .  S
C3514      C3515   1.413       .  A
C3515      C3520   1.519       .  S
C3515      C3516   1.408       .  A
C3516      C3517   1.410       .  A
C3516      H3521   1.082       .  S
C3517      C3518   1.422       .  A
C3518      C3522   1.515       .  S
C3519      C3524   1.414       .  A
C3519      C3528   1.397       .  A
C3520      F3536   1.383       .  S
C3520      F3537   1.381       .  S
C3520      F3538   1.384       .  S
C3522      F3533   1.385       .  S
C3522      F3534   1.375       .  S
C3522      F3535   1.382       .  S
C3524      C3529   1.521       .  S
C3524      C3525   1.407       .  A
C3525      C3526   1.407       .  A
C3525      H3530   1.083       .  S
C3526      C3527   1.424       .  A
C3527      C3531   1.522       .  S
C3527      C3528   1.403       .  A
C3528      H3532   1.083       .  S
C3529      F3542   1.384       .  S
C3529      F3543   1.383       .  S
C3529      F3544   1.381       .  S
C3531      F3539   1.383       .  S
C3531      F3540   1.383       .  S
C3531      F3541   1.385       .  S
C3545      C3546   1.392       .  A
C3545      C3550   1.412       .  A
C3545      H3555   1.086       .  S
C3546      C3551   1.490       .  S
C3546      C3547   1.404       .  A
C3547      C3552   1.519       .  S
C3547      C3548   1.408       .  A
C3548      C3549   1.423       .  A
C3548      H3553   1.073       .  S
C3549      C3550   1.457       .  A
C3550      C3554   1.534       .  S
C3551      C3556   1.413       .  A
C3551      C3560   1.396       .  A
C3552      F3568   1.383       .  S
C3552      F3569   1.380       .  S
C3552      F3570   1.385       .  S
C3554      F3565   1.387       .  S
C3554      F3566   1.382       .  S
C3554      F3567   1.366       .  S
C3556      C3561   1.522       .  S
C3556      C3557   1.410       .  A
C3557      C3558   1.416       .  A
C3557      H3562   1.077       .  S
C3558      C3559   1.437       .  A
C3559      C3563   1.522       .  S
C3559      C3560   1.410       .  A
C3560      H3564   1.085       .  S
C3561      F3574   1.384       .  S
C3561      F3575   1.382       .  S
C3561      F3576   1.381       .  S
C3563      F3571   1.385       .  S
C3563      F3572   1.373       .  S
C3563      F3573   1.383   1_545  S
C3577      C3578   1.405       .  A
C3577      C3582   1.410       .  A
C3577      H3587   1.083       .  S
C3578      C3583   1.483       .  S
C3578      C3579   1.415   1_556  A
C3579      C3584   1.522       .  S
C3579      C3580   1.401   1_554  A
C3580      C3581   1.403       .  A
C3580      H3585   1.082   1_556  S
C3581      C3582   1.417       .  A
C3582      C3586   1.519       .  S
C3583      C3588   1.417       .  A
C3583      C3592   1.397       .  A
C3584      F3600   1.381       .  S
C3584      F3601   1.382       .  S
C3584      F3602   1.385       .  S
C3586      F3597   1.385       .  S
C3586      F3598   1.381       .  S
C3586      F3599   1.382       .  S
C3588      C3593   1.519       .  S
C3588      C3589   1.412       .  A
C3589      C3590   1.407       .  A
C3589      H3594   1.083       .  S
C3590      C3591   1.421       .  A
C3591      C3595   1.519       .  S
C3591      C3592   1.402       .  A
C3592      H3596   1.083       .  S
C3593      F3606   1.385       .  S
C3593      F3607   1.382       .  S
C3593      F3608   1.382   1_556  S
C3595      F3603   1.384       .  S
C3595      F3604   1.383       .  S
C3595      F3605   1.382   1_556  S
C3609      C3610   1.396       .  A
C3609      C3614   1.403       .  A
C3609      H3619   1.083       .  S
C3610      C3615   1.482       .  S
C3610      C3611   1.414       .  A
C3611      C3616   1.519       .  S
C3611      C3612   1.408       .  A
C3612      C3613   1.408       .  A
C3612      H3617   1.083       .  S
C3613      C3614   1.425       .  A
C3614      C3618   1.516       .  S
C3615      C3620   1.414       .  A
C3615      C3624   1.401       .  A
C3616      F3632   1.382       .  S
C3616      F3633   1.382       .  S
C3616      F3634   1.384       .  S
C3618      F3629   1.383       .  S
C3618      F3630   1.385       .  S
C3618      F3631   1.380       .  S
C3620      C3625   1.521       .  S
C3620      C3621   1.402       .  A
C3621      C3622   1.406       .  A
C3621      H3626   1.083       .  S
C3622      C3623   1.422       .  A
C3623      C3627   1.520       .  S
C3623      C3624   1.408       .  A
C3624      H3628   1.083       .  S
C3625      F3638   1.385       .  S
C3625      F3639   1.381       .  S
C3625      F3640   1.383       .  S
C3627      F3635   1.380       .  S
C3627      F3636   1.383       .  S
C3627      F3637   1.385       .  S
C3641      C3642   1.404       .  A
C3641      C3646   1.413       .  A
C3641      H3651   1.083       .  S
C3642      C3647   1.485   1_455  S
C3642      C3643   1.410   1_455  A
C3643      C3648   1.520       .  S
C3643      C3644   1.402       .  A
C3644      C3645   1.410   1_655  A
C3644      H3649   1.082       .  S
C3645      C3646   1.423       .  A
C3646      C3650   1.519       .  S
C3647      C3652   1.415   1_655  A
C3647      C3656   1.399       .  A
C3648      F3664   1.382       .  S
C3648      F3665   1.381       .  S
C3648      F3666   1.385       .  S
C3650      F3661   1.385       .  S
C3650      F3662   1.383       .  S
C3650      F3663   1.383       .  S
C3652      C3657   1.519       .  S
C3652      C3653   1.410   1_455  A
C3653      C3654   1.404       .  A
C3653      H3658   1.081   1_655  S
C3654      C3655   1.419       .  A
C3655      C3659   1.510       .  S
C3655      C3656   1.407       .  A
C3656      H3660   1.083       .  S
C3657      F3670   1.384       .  S
C3657      F3671   1.383       .  S
C3657      F3672   1.381       .  S
C3659      F3667   1.378       .  S
C3659      F3668   1.382       .  S
C3659      F3669   1.385       .  S
C3673      C3674   1.396       .  A
C3673      C3678   1.402       .  A
C3673      H3683   1.084       .  S
C3674      C3679   1.475       .  S
C3674      C3675   1.413   1_455  A
C3675      C3680   1.519       .  S
C3675      C3676   1.406       .  A
C3676      C3677   1.405   1_655  A
C3676      H3681   1.082       .  S
C3677      C3678   1.419       .  A
C3678      C3682   1.511       .  S
C3679      C3684   1.413       .  A
C3679      C3688   1.401       .  A
C3680      F3696   1.383       .  S
C3680      F3697   1.382       .  S
C3680      F3698   1.384       .  S
C3682      F3693   1.378       .  S
C3682      F3694   1.385       .  S
C3682      F3695   1.381       .  S
C3684      C3689   1.520       .  S
C3684      C3685   1.403       .  A
C3685      C3686   1.404       .  A
C3685      H3690   1.083       .  S
C3686      C3687   1.417       .  A
C3687      C3691   1.519       .  S
C3687      C3688   1.404       .  A
C3688      H3692   1.083       .  S
C3689      F3702   1.385       .  S
C3689      F3703   1.382       .  S
C3689      F3704   1.382   1_455  S
C3691      F3699   1.385       .  S
C3691      F3700   1.383       .  S
C3691      F3701   1.382   1_455  S
C3705      C3706   1.397       .  A
C3705      C3710   1.403       .  A
C3705      H3715   1.084       .  S
C3706      C3711   1.483       .  S
C3706      C3707   1.415       .  A
C3707      C3712   1.518       .  S
C3707      C3708   1.409       .  A
C3708      C3709   1.406       .  A
C3708      H3713   1.082       .  S
C3709      C3710   1.420       .  A
C3710      C3714   1.510       .  S
C3711      C3716   1.414       .  A
C3711      C3720   1.404       .  A
C3712      F3728   1.382       .  S
C3712      F3729   1.381       .  S
C3712      F3730   1.385       .  S
C3714      F3725   1.385       .  S
C3714      F3726   1.378       .  S
C3714      F3727   1.381       .  S
C3716      C3721   1.521       .  S
C3716      C3717   1.404       .  A
C3717      C3718   1.406       .  A
C3717      H3722   1.083       .  S
C3718      C3719   1.418       .  A
C3719      C3723   1.518       .  S
C3719      C3720   1.410       .  A
C3720      H3724   1.083       .  S
C3721      F3734   1.384       .  S
C3721      F3735   1.382       .  S
C3721      F3736   1.382       .  S
C3723      F3731   1.383       .  S
C3723      F3732   1.384       .  S
C3723      F3733   1.384       .  S
C3737      C3738   1.393       .  A
C3737      C3742   1.419       .  A
C3737      H3747   1.085       .  S
C3738      C3743   1.498       .  S
C3738      C3739   1.404       .  A
C3739      C3744   1.519       .  S
C3739      C3740   1.409       .  A
C3740      C3741   1.429       .  A
C3740      H3745   1.080       .  S
C3741      C3742   1.464       .  A
C3742      C3746   1.534       .  S
C3743      C3748   1.414       .  A
C3743      C3752   1.398       .  A
C3744      F3760   1.382       .  S
C3744      F3761   1.381       .  S
C3744      F3762   1.385       .  S
C3746      F3757   1.381       .  S
C3746      F3758   1.387       .  S
C3746      F3759   1.365       .  S
C3748      C3753   1.519       .  S
C3748      C3749   1.412       .  A
C3749      C3750   1.416       .  A
C3749      H3754   1.076       .  S
C3750      C3751   1.437       .  A
C3751      C3755   1.520   1_655  S
C3751      C3752   1.412       .  A
C3752      H3756   1.085       .  S
C3753      F3766   1.384       .  S
C3753      F3767   1.382       .  S
C3753      F3768   1.380       .  S
C3755      F3763   1.375       .  S
C3755      F3764   1.382       .  S
C3755      F3765   1.386   1_455  S
C3769      C3770   1.391       .  A
C3769      C3774   1.416       .  A
C3769      H3779   1.084       .  S
C3770      C3775   1.490       .  S
C3770      C3771   1.401       .  A
C3771      C3776   1.521       .  S
C3771      C3772   1.406       .  A
C3772      C3773   1.427       .  A
C3772      H3777   1.067       .  S
C3773      C3774   1.461       .  A
C3774      C3778   1.534       .  S
C3775      C3780   1.412       .  A
C3775      C3784   1.395       .  A
C3776      F3792   1.383       .  S
C3776      F3793   1.382       .  S
C3776      F3794   1.384       .  S
C3778      F3789   1.387       .  S
C3778      F3790   1.377       .  S
C3778      F3791   1.370       .  S
C3780      C3785   1.522       .  S
C3780      C3781   1.410       .  A
C3781      C3782   1.418       .  A
C3781      H3786   1.075       .  S
C3782      C3783   1.437       .  A
C3783      C3787   1.521       .  S
C3783      C3784   1.409       .  A
C3784      H3788   1.085       .  S
C3785      F3798   1.385       .  S
C3785      F3799   1.382       .  S
C3785      F3800   1.381       .  S
C3787      F3795   1.385       .  S
C3787      F3796   1.372       .  S
C3787      F3797   1.382       .  S
C3801      C3802   1.391       .  A
C3801      C3806   1.414       .  A
C3801      H3811   1.082       .  S
C3802      C3807   1.499       .  S
C3802      C3803   1.410       .  A
C3803      C3808   1.521       .  S
C3803      C3804   1.414       .  A
C3804      C3805   1.430       .  A
C3804      H3809   1.075       .  S
C3805      C3806   1.452       .  A
C3806      C3810   1.526       .  S
C3807      C3812   1.414       .  A
C3807      C3816   1.399       .  A
C3808      F3824   1.382       .  S
C3808      F3825   1.382       .  S
C3808      F3826   1.385       .  S
C3810      F3821   1.377       .  S
C3810      F3822   1.385       .  S
C3810      F3823   1.367       .  S
C3812      C3817   1.523       .  S
C3812      C3813   1.412       .  A
C3813      C3814   1.417       .  A
C3813      H3818   1.075   1_655  S
C3814      C3815   1.438       .  A
C3815      C3819   1.525       .  S
C3815      C3816   1.413       .  A
C3816      H3820   1.085       .  S
C3817      F3830   1.384   1_655  S
C3817      F3831   1.381       .  S
C3817      F3832   1.382       .  S
C3819      F3827   1.383       .  S
C3819      F3828   1.376       .  S
C3819      F3829   1.385       .  S
C3833      C3834   1.392       .  A
C3833      C3838   1.413       .  A
C3833      H3843   1.085       .  S
C3834      C3839   1.486       .  S
C3834      C3835   1.403       .  A
C3835      C3840   1.522       .  S
C3835      C3836   1.407       .  A
C3836      C3837   1.425       .  A
C3836      H3841   1.070       .  S
C3837      C3838   1.459       .  A
C3838      C3842   1.539       .  S
C3839      C3844   1.411       .  A
C3839      C3848   1.395       .  A
C3840      F3856   1.383       .  S
C3840      F3857   1.380       .  S
C3840      F3858   1.384       .  S
C3842      F3853   1.387       .  S
C3842      F3854   1.380       .  S
C3842      F3855   1.370       .  S
C3844      C3849   1.522       .  S
C3844      C3845   1.410       .  A
C3845      C3846   1.417       .  A
C3845      H3850   1.075       .  S
C3846      C3847   1.438       .  A
C3847      C3851   1.527       .  S
C3847      C3848   1.406       .  A
C3848      H3852   1.085       .  S
C3849      F3862   1.385       .  S
C3849      F3863   1.382       .  S
C3849      F3864   1.381       .  S
C3851      F3859   1.385       .  S
C3851      F3860   1.375       .  S
C3851      F3861   1.383       .  S
C3865      C3866   1.392       .  A
C3865      C3870   1.400       .  A
C3865      H3875   1.084       .  S
C3866      C3871   1.484       .  S
C3866      C3867   1.416       .  A
C3867      C3872   1.518   1_556  S
C3867      C3868   1.414   1_556  A
C3868      C3869   1.408   1_554  A
C3868      H3873   1.083       .  S
C3869      C3870   1.425       .  A
C3870      C3874   1.510       .  S
C3871      C3876   1.415       .  A
C3871      C3880   1.401       .  A
C3872      F3888   1.382       .  S
C3872      F3889   1.383       .  S
C3872      F3890   1.384       .  S
C3874      F3885   1.380       .  S
C3874      F3886   1.385       .  S
C3874      F3887   1.381       .  S
C3876      C3881   1.520       .  S
C3876      C3877   1.404       .  A
C3877      C3878   1.404       .  A
C3877      H3882   1.081       .  S
C3878      C3879   1.419       .  A
C3879      C3883   1.514       .  S
C3879      C3880   1.409       .  A
C3880      H3884   1.083       .  S
C3881      F3894   1.385       .  S
C3881      F3895   1.382       .  S
C3881      F3896   1.382       .  S
C3883      F3891   1.380       .  S
C3883      F3892   1.382       .  S
C3883      F3893   1.385       .  S
C3897      C3898   1.404       .  A
C3897      C3902   1.410       .  A
C3897      H3907   1.083       .  S
C3898      C3903   1.484       .  S
C3898      C3899   1.414       .  A
C3899      C3904   1.521       .  S
C3899      C3900   1.404       .  A
C3900      C3901   1.407       .  A
C3900      H3905   1.083       .  S
C3901      C3902   1.420       .  A
C3902      C3906   1.519       .  S
C3903      C3908   1.415       .  A
C3903      C3912   1.400   1_556  A
C3904      F3920   1.382       .  S
C3904      F3921   1.382       .  S
C3904      F3922   1.385       .  S
C3906      F3917   1.385       .  S
C3906      F3918   1.382   1_556  S
C3906      F3919   1.384       .  S
C3908      C3913   1.519       .  S
C3908      C3909   1.407       .  A
C3909      C3910   1.405       .  A
C3909      H3914   1.082       .  S
C3910      C3911   1.418   1_556  A
C3911      C3915   1.515       .  S
C3911      C3912   1.406       .  A
C3912      H3916   1.083       .  S
C3913      F3926   1.385       .  S
C3913      F3927   1.382       .  S
C3913      F3928   1.381       .  S
C3915      F3923   1.379       .  S
C3915      F3924   1.379       .  S
C3915      F3925   1.385       .  S
C3929      C3930   1.398   1_554  A
C3929      C3934   1.405       .  A
C3929      H3939   1.083       .  S
C3930      C3935   1.484       .  S
C3930      C3931   1.415       .  A
C3931      C3936   1.519       .  S
C3931      C3932   1.409       .  A
C3932      C3933   1.408       .  A
C3932      H3937   1.083       .  S
C3933      C3934   1.424   1_556  A
C3934      C3938   1.522       .  S
C3935      C3940   1.410       .  A
C3935      C3944   1.401   1_556  A
C3936      F3952   1.383       .  S
C3936      F3953   1.382       .  S
C3936      F3954   1.385       .  S
C3938      F3949   1.383       .  S
C3938      F3950   1.385       .  S
C3938      F3951   1.384       .  S
C3940      C3945   1.522       .  S
C3940      C3941   1.401       .  A
C3941      C3942   1.409   1_556  A
C3941      H3946   1.080       .  S
C3942      C3943   1.429       .  A
C3943      C3947   1.521       .  S
C3943      C3944   1.413       .  A
C3944      H3948   1.083       .  S
C3945      F3958   1.385       .  S
C3945      F3959   1.382   1_556  S
C3945      F3960   1.382       .  S
C3947      F3955   1.382       .  S
C3947      F3956   1.380   1_554  S
C3947      F3957   1.385       .  S
C3961      C3962   1.400       .  A
C3961      C3966   1.412       .  A
C3961      H3971   1.083       .  S
C3962      C3967   1.499       .  S
C3962      C3963   1.417       .  A
C3963      C3968   1.518       .  S
C3963      C3964   1.413       .  A
C3964      C3965   1.408       .  A
C3964      H3969   1.082       .  S
C3965      C3966   1.431       .  A
C3966      C3970   1.522       .  S
C3967      C3972   1.419       .  A
C3967      C3976   1.402       .  A
C3968      F3984   1.382       .  S
C3968      F3985   1.383       .  S
C3968      F3986   1.384       .  S
C3970      F3981   1.383       .  S
C3970      F3982   1.385       .  S
C3970      F3983   1.384       .  S
C3972      C3977   1.519       .  S
C3972      C3973   1.411       .  A
C3973      C3974   1.405       .  A
C3973      H3978   1.082       .  S
C3974      C3975   1.422       .  A
C3975      C3979   1.516       .  S
C3975      C3976   1.413       .  A
C3976      H3980   1.083       .  S
C3977      F3990   1.384       .  S
C3977      F3991   1.382       .  S
C3977      F3992   1.383       .  S
C3979      F3987   1.385       .  S
C3979      F3988   1.382       .  S
C3979      F3989   1.379       .  S
C3993      C3994   1.400       .  A
C3993      C3998   1.406       .  A
C3993      H4003   1.083       .  S
C3994      C3999   1.485       .  S
C3994      C3995   1.416   1_554  A
C3995      C4000   1.519       .  S
C3995      C3996   1.409       .  A
C3996      C3997   1.403   1_556  A
C3996      H4001   1.083       .  S
C3997      C3998   1.415       .  A
C3998      C4002   1.513       .  S
C3999      C4004   1.414   1_554  A
C3999      C4008   1.395       .  A
C4000      F4016   1.382       .  S
C4000      F4017   1.382       .  S
C4000      F4018   1.385       .  S
C4002      F4013   1.381       .  S
C4002      F4014   1.385       .  S
C4002      F4015   1.382       .  S
C4004      C4009   1.519       .  S
C4004      C4005   1.410       .  A
C4005      C4006   1.409   1_556  A
C4005      H4010   1.082       .  S
C4006      C4007   1.434       .  A
C4007      C4011   1.523       .  S
C4007      C4008   1.407       .  A
C4008      H4012   1.083       .  S
C4009      F4022   1.384       .  S
C4009      F4023   1.383       .  S
C4009      F4024   1.382       .  S
C4011      F4019   1.385       .  S
C4011      F4020   1.383       .  S
C4011      F4021   1.381       .  S
C4025      C4026   1.400   1_554  A
C4025      C4030   1.409       .  A
C4025      H4035   1.083       .  S
C4026      C4031   1.484       .  S
C4026      C4027   1.411       .  A
C4027      C4032   1.520       .  S
C4027      C4028   1.405       .  A
C4028      C4029   1.410       .  A
C4028      H4033   1.082       .  S
C4029      C4030   1.428   1_556  A
C4030      C4034   1.521       .  S
C4031      C4036   1.416       .  A
C4031      C4040   1.401       .  A
C4032      F4048   1.382       .  S
C4032      F4049   1.382       .  S
C4032      F4050   1.384       .  S
C4034      F4045   1.382       .  S
C4034      F4046   1.385       .  S
C4034      F4047   1.380       .  S
C4036      C4041   1.520       .  S
C4036      C4037   1.407       .  A
C4037      C4038   1.405       .  A
C4037      H4042   1.083       .  S
C4038      C4039   1.419       .  A
C4039      C4043   1.520       .  S
C4039      C4040   1.405       .  A
C4040      H4044   1.083       .  S
C4041      F4054   1.385       .  S
C4041      F4055   1.382   1_556  S
C4041      F4056   1.382       .  S
C4043      F4051   1.382   1_556  S
C4043      F4052   1.384       .  S
C4043      F4053   1.385       .  S
C4057      C4058   1.392       .  A
C4057      C4062   1.414       .  A
C4057      H4067   1.083       .  S
C4058      C4063   1.494       .  S
C4058      C4059   1.407       .  A
C4059      C4064   1.521       .  S
C4059      C4060   1.411       .  A
C4060      C4061   1.430       .  A
C4060      H4065   1.071       .  S
C4061      C4062   1.453       .  A
C4062      C4066   1.532       .  S
C4063      C4068   1.411       .  A
C4063      C4072   1.398       .  A
C4064      F4080   1.382       .  S
C4064      F4081   1.382       .  S
C4064      F4082   1.385       .  S
C4066      F4077   1.381       .  S
C4066      F4078   1.386       .  S
C4066      F4079   1.375       .  S
C4068      C4073   1.523       .  S
C4068      C4069   1.408       .  A
C4069      C4070   1.418       .  A
C4069      H4074   1.073       .  S
C4070      C4071   1.438       .  A
C4071      C4075   1.525       .  S
C4071      C4072   1.413       .  A
C4072      H4076   1.085       .  S
C4073      F4086   1.385       .  S
C4073      F4087   1.382       .  S
C4073      F4088   1.382       .  S
C4075      F4083   1.383       .  S
C4075      F4084   1.376   1_554  S
C4075      F4085   1.385       .  S
C4089      C4090   1.401       .  A
C4089      C4094   1.407       .  A
C4089      H4099   1.083       .  S
C4090      C4095   1.477       .  S
C4090      C4091   1.414       .  A
C4091      C4096   1.520       .  S
C4091      C4092   1.400       .  A
C4092      C4093   1.406       .  A
C4092      H4097   1.084       .  S
C4093      C4094   1.425       .  A
C4094      C4098   1.523       .  S
C4095      C4100   1.410       .  A
C4095      C4104   1.401       .  A
C4096      F4112   1.383       .  S
C4096      F4113   1.381       .  S
C4096      F4114   1.384       .  S
C4098      F4109   1.381       .  S
C4098      F4110   1.385       .  S
C4098      F4111   1.380       .  S
C4100      C4105   1.519       .  S
C4100      C4101   1.404       .  A
C4101      C4102   1.408       .  A
C4101      H4106   1.083       .  S
C4102      C4103   1.422       .  A
C4103      C4107   1.520       .  S
C4103      C4104   1.407       .  A
C4104      H4108   1.083       .  S
C4105      F4118   1.384       .  S
C4105      F4119   1.383       .  S
C4105      F4120   1.383       .  S
C4107      F4115   1.383       .  S
C4107      F4116   1.384       .  S
C4107      F4117   1.385       .  S
C4121      C4122   1.402       .  A
C4121      C4126   1.409       .  A
C4121      H4131   1.083       .  S
C4122      C4127   1.495       .  S
C4122      C4123   1.419       .  A
C4123      C4128   1.518       .  S
C4123      C4124   1.412       .  A
C4124      C4125   1.403       .  A
C4124      H4129   1.083       .  S
C4125      C4126   1.417       .  A
C4126      C4130   1.512       .  S
C4127      C4132   1.416       .  A
C4127      C4136   1.398       .  A
C4128      F4144   1.382       .  S
C4128      F4145   1.382       .  S
C4128      F4146   1.385       .  S
C4130      F4141   1.385       .  S
C4130      F4142   1.383       .  S
C4130      F4143   1.380       .  S
C4132      C4137   1.519       .  S
C4132      C4133   1.414       .  A
C4133      C4134   1.411       .  A
C4133      H4138   1.082       .  S
C4134      C4135   1.433       .  A
C4135      C4139   1.523       .  S
C4135      C4136   1.410       .  A
C4136      H4140   1.083       .  S
C4137      F4150   1.384       .  S
C4137      F4151   1.382       .  S
C4137      F4152   1.382       .  S
C4139      F4147   1.384       .  S
C4139      F4148   1.383       .  S
C4139      F4149   1.385       .  S
C4153      C4154   1.401       .  A
C4153      C4158   1.416       .  A
C4153      H4163   1.084       .  S
C4154      C4159   1.498       .  S
C4154      C4155   1.411       .  A
C4155      C4160   1.520       .  S
C4155      C4156   1.411       .  A
C4156      C4157   1.420       .  A
C4156      H4161   1.080       .  S
C4157      C4158   1.434       .  A
C4158      C4162   1.521       .  S
C4159      C4164   1.409       .  A
C4159      C4168   1.396       .  A
C4160      F4176   1.383       .  S
C4160      F4177   1.382       .  S
C4160      F4178   1.385       .  S
C4162      F4173   1.385       .  S
C4162      F4174   1.381       .  S
C4162      F4175   1.382       .  S
C4164      C4169   1.520       .  S
C4164      C4165   1.406       .  A
C4165      C4166   1.425       .  A
C4165      H4170   1.083       .  S
C4166      C4167   1.465       .  A
C4167      C4171   1.538       .  S
C4167      C4168   1.421       .  A
C4168      H4172   1.083       .  S
C4169      F4182   1.384       .  S
C4169      F4183   1.383       .  S
C4169      F4184   1.381       .  S
C4171      F4179   1.380       .  S
C4171      F4180   1.368       .  S
C4171      F4181   1.386       .  S
C4185      C4186   1.399       .  A
C4185      C4190   1.411       .  A
C4185      H4195   1.083       .  S
C4186      C4191   1.489       .  S
C4186      C4187   1.416       .  A
C4187      C4192   1.520       .  S
C4187      C4188   1.409       .  A
C4188      C4189   1.408       .  A
C4188      H4193   1.083       .  S
C4189      C4190   1.430       .  A
C4190      C4194   1.522       .  S
C4191      C4196   1.413       .  A
C4191      C4200   1.401       .  A
C4192      F4208   1.382       .  S
C4192      F4209   1.383       .  S
C4192      F4210   1.384       .  S
C4194      F4205   1.383       .  S
C4194      F4206   1.385       .  S
C4194      F4207   1.384       .  S
C4196      C4201   1.518       .  S
C4196      C4197   1.406       .  A
C4197      C4198   1.408       .  A
C4197      H4202   1.081       .  S
C4198      C4199   1.426       .  A
C4199      C4203   1.521       .  S
C4199      C4200   1.410       .  A
C4200      H4204   1.083       .  S
C4201      F4214   1.385       .  S
C4201      F4215   1.383       .  S
C4201      F4216   1.382       .  S
C4203      F4211   1.382       .  S
C4203      F4212   1.381       .  S
C4203      F4213   1.385       .  S
C4217      C4218   1.403       .  A
C4217      C4222   1.409       .  A
C4217      H4227   1.083       .  S
C4218      C4223   1.487       .  S
C4218      C4219   1.415       .  A
C4219      C4224   1.520       .  S
C4219      C4220   1.408       .  A
C4220      C4221   1.406       .  A
C4220      H4225   1.083       .  S
C4221      C4222   1.418       .  A
C4222      C4226   1.517       .  S
C4223      C4228   1.416       .  A
C4223      C4232   1.399       .  A
C4224      F4240   1.382       .  S
C4224      F4241   1.382       .  S
C4224      F4242   1.385       .  S
C4226      F4237   1.382       .  S
C4226      F4238   1.385       .  S
C4226      F4239   1.383       .  S
C4228      C4233   1.519       .  S
C4228      C4229   1.410       .  A
C4229      C4230   1.406       .  A
C4229      H4234   1.082       .  S
C4230      C4231   1.418       .  A
C4231      C4235   1.513       .  S
C4231      C4232   1.405       .  A
C4232      H4236   1.084       .  S
C4233      F4246   1.384       .  S
C4233      F4247   1.382       .  S
C4233      F4248   1.382       .  S
C4235      F4243   1.380       .  S
C4235      F4244   1.381       .  S
C4235      F4245   1.384       .  S
C4249      C4250   1.396       .  A
C4249      C4254   1.406       .  A
C4249      H4259   1.083       .  S
C4250      C4255   1.484       .  S
C4250      C4251   1.416       .  A
C4251      C4256   1.520       .  S
C4251      C4252   1.411       .  A
C4252      C4253   1.409       .  A
C4252      H4257   1.082       .  S
C4253      C4254   1.428       .  A
C4254      C4258   1.522       .  S
C4255      C4260   1.416       .  A
C4255      C4264   1.397       .  A
C4256      F4272   1.382       .  S
C4256      F4273   1.382       .  S
C4256      F4274   1.384       .  S
C4258      F4269   1.383       .  S
C4258      F4270   1.385       .  S
C4258      F4271   1.384       .  S
C4260      C4265   1.517       .  S
C4260      C4261   1.409       .  A
C4261      C4262   1.404       .  A
C4261      H4266   1.083       .  S
C4262      C4263   1.421       .  A
C4263      C4267   1.514       .  S
C4263      C4264   1.404       .  A
C4264      H4268   1.083       .  S
C4265      F4278   1.385       .  S
C4265      F4279   1.382       .  S
C4265      F4280   1.382       .  S
C4267      F4275   1.385       .  S
C4267      F4276   1.380       .  S
C4267      F4277   1.377       .  S
C4281      C4282   1.403       .  A
C4281      C4286   1.412       .  A
C4281      H4291   1.083       .  S
C4282      C4287   1.482       .  S
C4282      C4283   1.413       .  A
C4283      C4288   1.523       .  S
C4283      C4284   1.404       .  A
C4284      C4285   1.410       .  A
C4284      H4289   1.083       .  S
C4285      C4286   1.422       .  A
C4286      C4290   1.518       .  S
C4287      C4292   1.414       .  A
C4287      C4296   1.401       .  A
C4288      F4304   1.382       .  S
C4288      F4305   1.381       .  S
C4288      F4306   1.384       .  S
C4290      F4301   1.383       .  S
C4290      F4302   1.385       .  S
C4290      F4303   1.384       .  S
C4292      C4297   1.519       .  S
C4292      C4293   1.407       .  A
C4293      C4294   1.405       .  A
C4293      H4298   1.083       .  S
C4294      C4295   1.418       .  A
C4295      C4299   1.520       .  S
C4295      C4296   1.405       .  A
C4296      H4300   1.083       .  S
C4297      F4310   1.385       .  S
C4297      F4311   1.382       .  S
C4297      F4312   1.382       .  S
C4299      F4307   1.384       .  S
C4299      F4308   1.382       .  S
C4299      F4309   1.381       .  S
C4313      C4314   1.401       .  A
C4313      C4318   1.405       .  A
C4313      H4323   1.085       .  S
C4314      C4319   1.488       .  S
C4314      C4315   1.418       .  A
C4315      C4320   1.519       .  S
C4315      C4316   1.409       .  A
C4316      C4317   1.402       .  A
C4316      H4321   1.083       .  S
C4317      C4318   1.420       .  A
C4318      C4322   1.520       .  S
C4319      C4324   1.415       .  A
C4319      C4328   1.402       .  A
C4320      F4336   1.381       .  S
C4320      F4337   1.383       .  S
C4320      F4338   1.385       .  S
C4322      F4333   1.383       .  S
C4322      F4334   1.384       .  S
C4322      F4335   1.381       .  S
C4324      C4329   1.519       .  S
C4324      C4325   1.407       .  A
C4325      C4326   1.400       .  A
C4325      H4330   1.078       .  S
C4326      C4327   1.421       .  A
C4327      C4331   1.517       .  S
C4327      C4328   1.407       .  A
C4328      H4332   1.085       .  S
C4329      F4342   1.384       .  S
C4329      F4343   1.381       .  S
C4329      F4344   1.383       .  S
C4331      F4339   1.383       .  S
C4331      F4340   1.377       .  S
C4331      F4341   1.383       .  S
C4345      C4346   1.398       .  A
C4345      C4350   1.407       .  A
C4345      H4355   1.083       .  S
C4346      C4351   1.483       .  S
C4346      C4347   1.412       .  A
C4347      C4352   1.519       .  S
C4347      C4348   1.407       .  A
C4348      C4349   1.409       .  A
C4348      H4353   1.083       .  S
C4349      C4350   1.429       .  A
C4350      C4354   1.524       .  S
C4351      C4356   1.415       .  A
C4351      C4360   1.402       .  A
C4352      F4368   1.382       .  S
C4352      F4369   1.381       .  S
C4352      F4370   1.384       .  S
C4354      F4365   1.382       .  S
C4354      F4366   1.385       .  S
C4354      F4367   1.381       .  S
C4356      C4361   1.521       .  S
C4356      C4357   1.408       .  A
C4357      C4358   1.407       .  A
C4357      H4362   1.083       .  S
C4358      C4359   1.419       .  A
C4359      C4363   1.519       .  S
C4359      C4360   1.407       .  A
C4360      H4364   1.083       .  S
C4361      F4374   1.384       .  S
C4361      F4375   1.382       .  S
C4361      F4376   1.382       .  S
C4363      F4371   1.382       .  S
C4363      F4372   1.384       .  S
C4363      F4373   1.385       .  S
C4377      C4378   1.397       .  A
C4377      C4382   1.411       .  A
C4377      H4387   1.085       .  S
C4378      C4383   1.489       .  S
C4378      C4379   1.409       .  A
C4379      C4384   1.523       .  S
C4379      C4380   1.408       .  A
C4380      C4381   1.419       .  A
C4380      H4385   1.072       .  S
C4381      C4382   1.438       .  A
C4382      C4386   1.525       .  S
C4383      C4388   1.405       .  A
C4383      C4392   1.390       .  A
C4384      F4400   1.382       .  S
C4384      F4401   1.381       .  S
C4384      F4402   1.385       .  S
C4386      F4397   1.377       .  S
C4386      F4398   1.385       .  S
C4386      F4399   1.383       .  S
C4388      C4393   1.521       .  S
C4388      C4389   1.409       .  A
C4389      C4390   1.430       .  A
C4389      H4394   1.072       .  S
C4390      C4391   1.455       .  A
C4391      C4395   1.532       .  S
C4391      C4392   1.413       .  A
C4392      H4396   1.083       .  S
C4393      F4406   1.384       .  S
C4393      F4407   1.383       .  S
C4393      F4408   1.381       .  S
C4395      F4403   1.386       .  S
C4395      F4404   1.373       .  S
C4395      F4405   1.380       .  S
C4409      C4410   1.398       .  A
C4409      C4414   1.403       .  A
C4409      H4419   1.084       .  S
C4410      C4415   1.481       .  S
C4410      C4411   1.416       .  A
C4411      C4416   1.519       .  S
C4411      C4412   1.407       .  A
C4412      C4413   1.404       .  A
C4412      H4417   1.083       .  S
C4413      C4414   1.417       .  A
C4414      C4418   1.513       .  S
C4415      C4420   1.417       .  A
C4415      C4424   1.400       .  A
C4416      F4432   1.382       .  S
C4416      F4433   1.382       .  S
C4416      F4434   1.385       .  S
C4418      F4429   1.379       .  S
C4418      F4430   1.384       .  S
C4418      F4431   1.382       .  S
C4420      C4425   1.519       .  S
C4420      C4421   1.408       .  A
C4421      C4422   1.401       .  A
C4421      H4426   1.083       .  S
C4422      C4423   1.416       .  A
C4423      C4427   1.519       .  S
C4423      C4424   1.405       .  A
C4424      H4428   1.083       .  S
C4425      F4438   1.384       .  S
C4425      F4439   1.382       .  S
C4425      F4440   1.382       .  S
C4427      F4435   1.384       .  S
C4427      F4436   1.382       .  S
C4427      F4437   1.384       .  S
C4441      C4442   1.400       .  A
C4441      C4446   1.404       .  A
C4441      H4451   1.085       .  S
C4442      C4447   1.489       .  S
C4442      C4443   1.419       .  A
C4443      C4448   1.519       .  S
C4443      C4444   1.412       .  A
C4444      C4445   1.406       .  A
C4444      H4449   1.083       .  S
C4445      C4446   1.419       .  A
C4446      C4450   1.514       .  S
C4447      C4452   1.417       .  A
C4447      C4456   1.398       .  A
C4448      F4464   1.382       .  S
C4448      F4465   1.381       .  S
C4448      F4466   1.385       .  S
C4450      F4461   1.382       .  S
C4450      F4462   1.384       .  S
C4450      F4463   1.378       .  S
C4452      C4457   1.518       .  S
C4452      C4453   1.413       .  A
C4453      C4454   1.406       .  A
C4453      H4458   1.083       .  S
C4454      C4455   1.426       .  A
C4455      C4459   1.521       .  S
C4455      C4456   1.406       .  A
C4456      H4460   1.083       .  S
C4457      F4470   1.384       .  S
C4457      F4471   1.382       .  S
C4457      F4472   1.380       .  S
C4459      F4467   1.382       .  S
C4459      F4468   1.382       .  S
C4459      F4469   1.385       .  S
C4473      C4474   1.403       .  A
C4473      C4478   1.409       .  A
C4473      H4483   1.083       .  S
C4474      C4479   1.478       .  S
C4474      C4475   1.413   1_565  A
C4475      C4480   1.522       .  S
C4475      C4476   1.401       .  A
C4476      C4477   1.405   1_545  A
C4476      H4481   1.083       .  S
C4477      C4478   1.418       .  A
C4478      C4482   1.519       .  S
C4479      C4484   1.414       .  A
C4479      C4488   1.396   1_565  A
C4480      F4496   1.382       .  S
C4480      F4497   1.382       .  S
C4480      F4498   1.384       .  S
C4482      F4493   1.384       .  S
C4482      F4494   1.383   1_455  S
C4482      F4495   1.384       .  S
C4484      C4489   1.518       .  S
C4484      C4485   1.409       .  A
C4485      C4486   1.406   1_565  A
C4485      H4490   1.082       .  S
C4486      C4487   1.417   1_455  A
C4487      C4491   1.512       .  S
C4487      C4488   1.400   1_655  A
C4488      H4492   1.084   1_455  S
C4489      F4502   1.384       .  S
C4489      F4503   1.383       .  S
C4489      F4504   1.382   1_565  S
C4491      F4499   1.379   1_545  S
C4491      F4500   1.382       .  S
C4491      F4501   1.385       .  S
C4505      C4506   1.397       .  A
C4505      C4510   1.404       .  A
C4505      H4515   1.083       .  S
C4506      C4511   1.485       .  S
C4506      C4507   1.415   1_565  A
C4507      C4512   1.519       .  S
C4507      C4508   1.409       .  A
C4508      C4509   1.407   1_545  A
C4508      H4513   1.082       .  S
C4509      C4510   1.421       .  A
C4510      C4514   1.514       .  S
C4511      C4516   1.416       .  A
C4511      C4520   1.402       .  A
C4512      F4528   1.382       .  S
C4512      F4529   1.382       .  S
C4512      F4530   1.384       .  S
C4514      F4525   1.385       .  S
C4514      F4526   1.378       .  S
C4514      F4527   1.380       .  S
C4516      C4521   1.521       .  S
C4516      C4517   1.405       .  A
C4517      C4518   1.405       .  A
C4517      H4522   1.082       .  S
C4518      C4519   1.419       .  A
C4519      C4523   1.519   1_565  S
C4519      C4520   1.408       .  A
C4520      H4524   1.083   1_565  S
C4521      F4534   1.385       .  S
C4521      F4535   1.382       .  S
C4521      F4536   1.383   1_565  S
C4523      F4531   1.384       .  S
C4523      F4532   1.384   1_545  S
C4523      F4533   1.383       .  S
C4537      C4538   1.398       .  A
C4537      C4542   1.404       .  A
C4537      H4547   1.083       .  S
C4538      C4543   1.479       .  S
C4538      C4539   1.414       .  A
C4539      C4544   1.518       .  S
C4539      C4540   1.405       .  A
C4540      C4541   1.403       .  A
C4540      H4545   1.082       .  S
C4541      C4542   1.419       .  A
C4542      C4546   1.513       .  S
C4543      C4548   1.413       .  A
C4543      C4552   1.402   1_455  A
C4544      F4560   1.383   1_455  S
C4544      F4561   1.382       .  S
C4544      F4562   1.384       .  S
C4546      F4557   1.385       .  S
C4546      F4558   1.378       .  S
C4546      F4559   1.382       .  S
C4548      C4553   1.521       .  S
C4548      C4549   1.403       .  A
C4549      C4550   1.406       .  A
C4549      H4554   1.081       .  S
C4550      C4551   1.419   1_455  A
C4551      C4555   1.519       .  S
C4551      C4552   1.408       .  A
C4552      H4556   1.083       .  S
C4553      F4566   1.384       .  S
C4553      F4567   1.382       .  S
C4553      F4568   1.383       .  S
C4555      F4563   1.383       .  S
C4555      F4564   1.384       .  S
C4555      F4565   1.385       .  S
C4569      C4570   1.398       .  A
C4569      C4574   1.409       .  A
C4569      H4579   1.085       .  S
C4570      C4575   1.493       .  S
C4570      C4571   1.413       .  A
C4571      C4576   1.521       .  S
C4571      C4572   1.410       .  A
C4572      C4573   1.415       .  A
C4572      H4577   1.078       .  S
C4573      C4574   1.434       .  A
C4574      C4578   1.523       .  S
C4575      C4580   1.406       .  A
C4575      C4584   1.394       .  A
C4576      F4592   1.382       .  S
C4576      F4593   1.382       .  S
C4576      F4594   1.385       .  S
C4578      F4589   1.385       .  S
C4578      F4590   1.383       .  S
C4578      F4591   1.379   1_545  S
C4580      C4585   1.523       .  S
C4580      C4581   1.407       .  A
C4581      C4582   1.429       .  A
C4581      H4586   1.069       .  S
C4582      C4583   1.452       .  A
C4583      C4587   1.531       .  S
C4583      C4584   1.416       .  A
C4584      H4588   1.083       .  S
C4585      F4598   1.385       .  S
C4585      F4599   1.382       .  S
C4585      F4600   1.382       .  S
C4587      F4595   1.385       .  S
C4587      F4596   1.374       .  S
C4587      F4597   1.381       .  S
C4601      C4602   1.401       .  A
C4601      C4606   1.410       .  A
C4601      H4611   1.083       .  S
C4602      C4607   1.479       .  S
C4602      C4603   1.411       .  A
C4603      C4608   1.522       .  S
C4603      C4604   1.399       .  A
C4604      C4605   1.408       .  A
C4604      H4609   1.081       .  S
C4605      C4606   1.424       .  A
C4606      C4610   1.519       .  S
C4607      C4612   1.413       .  A
C4607      C4616   1.399       .  A
C4608      F4624   1.382       .  S
C4608      F4625   1.383       .  S
C4608      F4626   1.385       .  S
C4610      F4621   1.385       .  S
C4610      F4622   1.381       .  S
C4610      F4623   1.380       .  S
C4612      C4617   1.520       .  S
C4612      C4613   1.404       .  A
C4613      C4614   1.405       .  A
C4613      H4618   1.083       .  S
C4614      C4615   1.424       .  A
C4615      C4619   1.520       .  S
C4615      C4616   1.406       .  A
C4616      H4620   1.083       .  S
C4617      F4630   1.384       .  S
C4617      F4631   1.382       .  S
C4617      F4632   1.383       .  S
C4619      F4627   1.385       .  S
C4619      F4628   1.384       .  S
C4619      F4629   1.382       .  S
C4633      C4634   1.400       .  A
C4633      C4638   1.404       .  A
C4633      H4643   1.083       .  S
C4634      C4639   1.482       .  S
C4634      C4635   1.415       .  A
C4635      C4640   1.519       .  S
C4635      C4636   1.409       .  A
C4636      C4637   1.403       .  A
C4636      H4641   1.083       .  S
C4637      C4638   1.414       .  A
C4638      C4642   1.514       .  S
C4639      C4644   1.410       .  A
C4639      C4648   1.402       .  A
C4640      F4656   1.382       .  S
C4640      F4657   1.382       .  S
C4640      F4658   1.384       .  S
C4642      F4653   1.385       .  S
C4642      F4654   1.381       .  S
C4642      F4655   1.382       .  S
C4644      C4649   1.522       .  S
C4644      C4645   1.403       .  A
C4645      C4646   1.413       .  A
C4645      H4650   1.082       .  S
C4646      C4647   1.426       .  A
C4647      C4651   1.519       .  S
C4647      C4648   1.412       .  A
C4648      H4652   1.083       .  S
C4649      F4662   1.385       .  S
C4649      F4663   1.382       .  S
C4649      F4664   1.381       .  S
C4651      F4659   1.385       .  S
C4651      F4660   1.383       .  S
C4651      F4661   1.383       .  S
C4665      C4666   1.404       .  A
C4665      C4670   1.411       .  A
C4665      H4675   1.083       .  S
C4666      C4671   1.490       .  S
C4666      C4667   1.416       .  A
C4667      C4672   1.521       .  S
C4667      C4668   1.405       .  A
C4668      C4669   1.404       .  A
C4668      H4673   1.080       .  S
C4669      C4670   1.419       .  A
C4670      C4674   1.519       .  S
C4671      C4676   1.417       .  A
C4671      C4680   1.397       .  A
C4672      F4688   1.381       .  S
C4672      F4689   1.382       .  S
C4672      F4690   1.385       .  S
C4674      F4685   1.385       .  S
C4674      F4686   1.381       .  S
C4674      F4687   1.382       .  S
C4676      C4681   1.518       .  S
C4676      C4677   1.414       .  A
C4677      C4678   1.408       .  A
C4677      H4682   1.083       .  S
C4678      C4679   1.422       .  A
C4679      C4683   1.509       .  S
C4679      C4680   1.404       .  A
C4680      H4684   1.083       .  S
C4681      F4694   1.384       .  S
C4681      F4695   1.382       .  S
C4681      F4696   1.382       .  S
C4683      F4691   1.385       .  S
C4683      F4692   1.380       .  S
C4683      F4693   1.380       .  S
C4697      C4698   1.402       .  A
C4697      C4702   1.407       .  A
C4697      H4707   1.082       .  S
C4698      C4703   1.504       .  S
C4698      C4699   1.422       .  A
C4699      C4704   1.519       .  S
C4699      C4700   1.413       .  A
C4700      C4701   1.412       .  A
C4700      H4705   1.083       .  S
C4701      C4702   1.430       .  A
C4702      C4706   1.522       .  S
C4703      C4708   1.413       .  A
C4703      C4712   1.398       .  A
C4704      F4720   1.383       .  S
C4704      F4721   1.381       .  S
C4704      F4722   1.384       .  S
C4706      F4717   1.385       .  S
C4706      F4718   1.382       .  S
C4706      F4719   1.380       .  S
C4708      C4713   1.522       .  S
C4708      C4709   1.406       .  A
C4709      C4710   1.421       .  A
C4709      H4714   1.073       .  S
C4710      C4711   1.455       .  A
C4711      C4715   1.532       .  S
C4711      C4712   1.418       .  A
C4712      H4716   1.085       .  S
C4713      F4726   1.385       .  S
C4713      F4727   1.381       .  S
C4713      F4728   1.384       .  S
C4715      F4723   1.387       .  S
C4715      F4724   1.368       .  S
C4715      F4725   1.381       .  S
C4729      C4730   1.402   1_545  A
C4729      C4734   1.416       .  A
C4729      H4739   1.083       .  S
C4730      C4735   1.494       .  S
C4730      C4731   1.411   1_554  A
C4731      C4736   1.521       .  S
C4731      C4732   1.407   1_565  A
C4732      C4733   1.411   1_556  A
C4732      H4737   1.076       .  S
C4733      C4734   1.430       .  A
C4734      C4738   1.522       .  S
C4735      C4740   1.414   1_565  A
C4735      C4744   1.406       .  A
C4736      F4752   1.382       .  S
C4736      F4753   1.382   1_565  S
C4736      F4754   1.384       .  S
C4738      F4749   1.382       .  S
C4738      F4750   1.385       .  S
C4738      F4751   1.379   1_545  S
C4740      C4745   1.520       .  S
C4740      C4741   1.406   1_554  A
C4741      C4742   1.407   1_545  A
C4741      H4746   1.083       .  S
C4742      C4743   1.421   1_556  A
C4743      C4747   1.518       .  S
C4743      C4744   1.415       .  A
C4744      H4748   1.083       .  S
C4745      F4758   1.385       .  S
C4745      F4759   1.382       .  S
C4745      F4760   1.382   1_554  S
C4747      F4755   1.384       .  S
C4747      F4756   1.382   1_554  S
C4747      F4757   1.385       .  S
C4761      C4762   1.396   1_565  A
C4761      C4766   1.402   1_565  A
C4761      H4771   1.083       .  S
C4762      C4767   1.475       .  S
C4762      C4763   1.413       .  A
C4763      C4768   1.518       .  S
C4763      C4764   1.405       .  A
C4764      C4765   1.402       .  A
C4764      H4769   1.081       .  S
C4765      C4766   1.420       .  A
C4766      C4770   1.515   1_545  S
C4767      C4772   1.416   1_545  A
C4767      C4776   1.398       .  A
C4768      F4784   1.383       .  S
C4768      F4785   1.382       .  S
C4768      F4786   1.384       .  S
C4770      F4781   1.385       .  S
C4770      F4782   1.378   1_565  S
C4770      F4783   1.379       .  S
C4772      C4777   1.518       .  S
C4772      C4773   1.405       .  A
C4773      C4774   1.399       .  A
C4773      H4778   1.083       .  S
C4774      C4775   1.417   1_565  A
C4775      C4779   1.519       .  S
C4775      C4776   1.401       .  A
C4776      H4780   1.083       .  S
C4777      F4790   1.384       .  S
C4777      F4791   1.381       .  S
C4777      F4792   1.382       .  S
C4779      F4787   1.385       .  S
C4779      F4788   1.384       .  S
C4779      F4789   1.381       .  S
C4793      C4794   1.401   1_554  A
C4793      C4798   1.410       .  A
C4793      H4803   1.083       .  S
C4794      C4799   1.486       .  S
C4794      C4795   1.413       .  A
C4795      C4800   1.519       .  S
C4795      C4796   1.403       .  A
C4796      C4797   1.406   1_556  A
C4796      H4801   1.081       .  S
C4797      C4798   1.423       .  A
C4798      C4802   1.517       .  S
C4799      C4804   1.416       .  A
C4799      C4808   1.399       .  A
C4800      F4816   1.382       .  S
C4800      F4817   1.383       .  S
C4800      F4818   1.384       .  S
C4802      F4813   1.379       .  S
C4802      F4814   1.385       .  S
C4802      F4815   1.379       .  S
C4804      C4809   1.520       .  S
C4804      C4805   1.407       .  A
C4805      C4806   1.406       .  A
C4805      H4810   1.083       .  S
C4806      C4807   1.426       .  A
C4807      C4811   1.521       .  S
C4807      C4808   1.408       .  A
C4808      H4812   1.083       .  S
C4809      F4822   1.385       .  S
C4809      F4823   1.382   1_556  S
C4809      F4824   1.383       .  S
C4811      F4819   1.383       .  S
C4811      F4820   1.383       .  S
C4811      F4821   1.385       .  S
C4825      C4826   1.393       .  A
C4825      C4830   1.407       .  A
C4825      H4835   1.085       .  S
C4826      C4831   1.490       .  S
C4826      C4827   1.413       .  A
C4827      C4832   1.520       .  S
C4827      C4828   1.412       .  A
C4828      C4829   1.416       .  A
C4828      H4833   1.078       .  S
C4829      C4830   1.437       .  A
C4830      C4834   1.519       .  S
C4831      C4836   1.403       .  A
C4831      C4840   1.390       .  A
C4832      F4848   1.383       .  S
C4832      F4849   1.381       .  S
C4832      F4850   1.384       .  S
C4834      F4845   1.382   1_554  S
C4834      F4846   1.385       .  S
C4834      F4847   1.373       .  S
C4836      C4841   1.519       .  S
C4836      C4837   1.407       .  A
C4837      C4838   1.424       .  A
C4837      H4842   1.069       .  S
C4838      C4839   1.461       .  A
C4839      C4843   1.535       .  S
C4839      C4840   1.413       .  A
C4840      H4844   1.085       .  S
C4841      F4854   1.384       .  S
C4841      F4855   1.383       .  S
C4841      F4856   1.381       .  S
C4843      F4851   1.381       .  S
C4843      F4852   1.369       .  S
C4843      F4853   1.387       .  S
