geometry optimzed in LAMMPS
_audit_creation_date              2020-12-01 
_audit_creation_method            'lammps2cif' 
_symmetry_space_group_name_H-M    'P1' 
_symmetry_Int_Tables_number       1 
_symmetry_cell_setting            triclinic 
loop_ 
_symmetry_equiv_pos_as_xyz 
  x,y,z 
_cell_length_a                    47.29537626 
_cell_length_b                    47.30353577316444 
_cell_length_c                    47.27402352845638 
_cell_angle_alpha                 89.97107665959012 
_cell_angle_beta                  90.02142948885525 
_cell_angle_gamma                 89.94547035688217 
loop_ 
_atom_site_label 
_atom_site_type_symbol 
_atom_site_fract_x 
_atom_site_fract_y 
_atom_site_fract_z 
_atom_site_charge 
O1          O  0.19298661  0.03652242  0.50436267    -0.85500
O2          O  0.18122102  0.07976083  0.46875661    -0.82500
C3          C  0.18280153  0.09699392  0.44856683     0.98000
O4          O  0.19772667  0.09119097  0.42712265    -0.82500
O5          O  0.25205163  0.09160226  0.44788226    -0.85200
C6          C  0.27361101  0.08429647  0.46178722     1.02500
O7          O  0.27757382  0.05846586  0.46773088    -0.78000
O8          O  0.23722031  0.04966436  0.50852934    -0.78100
C9          C  0.21266896  0.04757756  0.51862476     1.02500
O10         O  0.18912318  0.99775633  0.45807506    -0.85500
O11         O  0.17155881  0.04105865  0.42326700    -0.82500
C12         C  0.18393927  0.03582833  0.40015333     0.98000
O13         O  0.21026756  0.03910454  0.39792678    -0.82600
O14         O  0.26552193  0.04260562  0.41475007    -0.85200
C15         C  0.27085407  0.01689757  0.41984984     1.02500
O16         O  0.26207917  0.00538862  0.44223132    -0.78000
O17         O  0.22567741  0.99414058  0.48624419    -0.78100
C18         C  0.20428555  0.98312579  0.47444250     1.02400
Cr19       Cr  0.18631026  0.03904427  0.46288452     1.93700
Cr20       Cr  0.23083965  0.06464159  0.42409252     1.93200
Cr21       Cr  0.24877440  0.02800601  0.47465345     1.39100
O22         O  0.22199458  0.04381605  0.45381768    -1.23200
O23         O  0.97361669  0.98983858  0.31725374    -0.85500
O24         O  0.93114317  0.95684995  0.33980300    -0.82500
C25         C  0.91304176  0.93730701  0.34144939     0.98000
O26         O  0.91693659  0.91418983  0.32858549    -0.82500
O27         O  0.90894564  0.92698054  0.27242290    -0.85200
C28         C  0.91371248  0.93808123  0.24865063     1.02500
O29         O  0.93871167  0.94430985  0.24153929    -0.78000
O30         O  0.95331224  0.98988129  0.27558811    -0.78100
C31         C  0.96103759  0.00288821  0.29760903     1.02500
O32         O  0.01129119  0.94273839  0.32063931    -0.85500
O33         O  0.97069425  0.91213159  0.34871776    -0.82500
C34         C  0.97404924  0.88762070  0.33873759     0.98000
O35         O  0.96643817  0.88214449  0.31379256    -0.82600
O36         O  0.95587563  0.89173399  0.25758895    -0.85200
C37         C  0.98004504  0.89642554  0.24718000     1.02500
O38         O  0.99262678  0.91938727  0.25219221    -0.78000
O39         O  0.00949650  0.96682859  0.28116003    -0.78100
C40         C  0.02357158  0.95686679  0.30165012     1.02400
Cr41       Cr  0.97087155  0.94939159  0.32909700     1.93700
Cr42       Cr  0.93871445  0.90610631  0.29330172     1.93200
Cr43       Cr  0.97255078  0.95378235  0.26487320     1.39100
O44         O  0.96056640  0.93643135  0.29572619    -1.23200
O45         O  0.99753835  0.21262968  0.48263400    -0.85500
O46         O  0.97361577  0.24863885  0.44525278    -0.82500
C47         C  0.95653458  0.25847212  0.42743466     0.98000
O48         O  0.93081255  0.25089188  0.42770234    -0.82500
O49         O  0.92853268  0.19358353  0.41423271    -0.85200
C50         C  0.93085176  0.16717104  0.41722599     1.02500
O51         O  0.93186740  0.15674428  0.44182418    -0.78000
O52         O  0.98440296  0.17530105  0.45848558    -0.78100
C53         C  0.00356573  0.19191878  0.46667409     1.02500
O54         O  0.95245066  0.22564373  0.52229356    -0.85500
O55         O  0.93118507  0.26496736  0.48526265    -0.82500
C56         C  0.90476436  0.26100962  0.48632607     0.98000
O57         O  0.89364700  0.23990206  0.47461462    -0.82600
O58         O  0.88716564  0.18514556  0.45958691    -0.85200
C59         C  0.88790845  0.17402341  0.48404571     1.02500
O60         O  0.91106361  0.17110915  0.49683294    -0.78000
O61         O  0.96433350  0.18159189  0.51524890    -0.78100
C62         C  0.95932558  0.20183843  0.53192947     1.02400
Cr63       Cr  0.96204321  0.23598138  0.48283882     1.93700
Cr64       Cr  0.91218196  0.21684839  0.44545441     1.93200
Cr65       Cr  0.94745771  0.17362816  0.47740467     1.39100
O66         O  0.94057850  0.20900056  0.46845314    -1.23200
O67         O  0.06285365  0.00357250  0.74552118    -0.85500
O68         O  0.07099257  0.04446760  0.78636578    -0.82500
C69         C  0.09642433  0.05229571  0.78352908     0.98000
O70         O  0.10382708  0.06818799  0.76340690    -0.82500
O71         O  0.10455042  0.08860148  0.70890403    -0.85200
C72         C  0.11225896  0.06754032  0.69432039     1.02500
O73         O  0.09663735  0.04608008  0.69254298    -0.78000
O74         O  0.05286371  0.00919243  0.70063777    -0.78100
C75         C  0.06130268  0.99381423  0.72072075     1.02500
O76         O  0.00856583  0.02734609  0.73262775    -0.85500
O77         O  0.01785059  0.06990454  0.77081508    -0.92100
C78         C  0.02830475  0.09257764  0.78005859     0.98000
O79         O  0.05362941  0.09898547  0.77481206    -0.82600
O80         O  0.05035995  0.11504585  0.71910674    -0.85200
C81         C  0.04843254  0.11255805  0.69262803     1.02500
O82         O  0.05721042  0.09033939  0.68073304    -0.78000
O83         O  0.01399776  0.05477945  0.69563160    -0.78100
C84         C  0.99864799  0.03904090  0.71066410     1.02400
Cr85       Cr  0.04134418  0.03803094  0.75699709     1.93700
Cr86       Cr  0.07671507  0.09042838  0.74088135     1.93200
Cr87       Cr  0.05538601  0.05073684  0.69513009     1.39100
O88         O  0.05786409  0.05958102  0.73117633    -1.23200
O89         O  0.77214977  0.96537693  0.51480772    -0.85500
O90         O  0.73819764  0.92947782  0.54487891    -0.82500
C91         C  0.73045215  0.91261764  0.56393447     0.98000
O92         O  0.74103390  0.91345190  0.58857232    -0.82500
O93         O  0.79634601  0.89609514  0.58474351    -0.85200
C94         C  0.82171516  0.89679206  0.57675491     1.02500
O95         O  0.83368286  0.92014371  0.57185107    -0.78000
O96         O  0.80815455  0.93746803  0.52317730    -0.78100
C97         C  0.79117683  0.94864039  0.50602436     1.02500
O98         O  0.76799621  0.00498518  0.56144559    -0.85500
O99         O  0.72966352  0.97038495  0.58778096    -0.82500
C100        C  0.73652399  0.97173898  0.61357248     0.98000
O101        O  0.75932447  0.96088675  0.62198764    -0.82600
O102        O  0.81391949  0.94188109  0.62122260    -0.85200
C103        C  0.82795178  0.96431684  0.61700886     1.02500
O104        O  0.82758297  0.97643047  0.59337534    -0.78000
O105        O  0.80904119  0.99502041  0.54276670    -0.78100
C106        C  0.79128241  0.01301723  0.55149270     1.02400
Cr107      Cr  0.75410954  0.96644011  0.55353623     1.93700
Cr108      Cr  0.77794978  0.92959789  0.60190039     1.93200
Cr109      Cr  0.81721791  0.95674816  0.55866688     1.39100
O110        O  0.78298327  0.95071693  0.57142864    -1.23200
O111        O  0.00898364  0.80160482  0.57860088    -0.85500
O112        O  0.05967674  0.82610340  0.59242309    -0.82500
C113        C  0.06516319  0.81549834  0.61630640     0.98000
O114        O  0.07138002  0.78967767  0.61856114    -0.82500
O115        O  0.07385929  0.73289940  0.60433341    -0.85200
C116        C  0.04939538  0.72215439  0.60599591     1.02500
O117        O  0.02996773  0.72941989  0.58935289    -0.78000
O118        O  0.99863295  0.76328414  0.55459988    -0.78100
C119        C  0.99099093  0.78391852  0.57000958     1.02500
O120        O  0.02534425  0.79869889  0.52087833    -0.85500
O121        O  0.07913042  0.81609649  0.53593380    -0.82500
C122        C  0.10286523  0.81666278  0.54812550     0.98000
O123        O  0.10682428  0.80341317  0.57109105    -0.82600
O124        O  0.10603043  0.74795848  0.55492319    -0.85200
C125        C  0.09663638  0.72555371  0.54405617     1.02500
O126        O  0.07068588  0.71943756  0.54608472    -0.78000
O127        O  0.04226054  0.75672605  0.51174201    -0.78100
C128        C  0.03059788  0.77914444  0.50353853     1.02400
Cr129      Cr  0.04425884  0.80805340  0.55750068     1.93700
Cr130      Cr  0.08707456  0.76873088  0.58570306     1.93200
Cr131      Cr  0.03692472  0.74445492  0.55147570     1.39100
O132        O  0.05608197  0.77358815  0.56510866    -1.23200
O133        O  0.49725507  0.18547687  0.07477971    -0.85500
O134        O  0.44473836  0.16193833  0.08408152    -0.82500
C135        C  0.43785807  0.17086935  0.10833446     0.98000
O136        O  0.43315088  0.19680744  0.11211671    -0.82500
O137        O  0.43318550  0.25433047  0.10195422    -0.85200
C138        C  0.45821521  0.26216825  0.10747640     1.02500
O139        O  0.47835019  0.25554882  0.09136452    -0.78000
O140        O  0.50991745  0.22483562  0.05389954    -0.78100
C141        C  0.51628739  0.20267874  0.06762321     1.02500
O142        O  0.48365918  0.19373805  0.01658654    -0.85500
O143        O  0.42936579  0.17638818  0.02751846    -0.82500
C144        C  0.40510619  0.17489244  0.03840709     0.98000
O145        O  0.39991641  0.18729127  0.06166197    -0.82600
O146        O  0.40393920  0.24384411  0.04956376    -0.85200
C147        C  0.41439068  0.26711471  0.04202550     1.02500
O148        O  0.44012389  0.27251759  0.04709005    -0.78000
O149        O  0.46867976  0.23711192  0.01043220    -0.78100
C150        C  0.47931694  0.21474232  0.00063583     1.02400
Cr151      Cr  0.46295586  0.18187173  0.05148764     1.93700
Cr152      Cr  0.41990023  0.22037499  0.07995786     1.93200
Cr153      Cr  0.47267068  0.24542715  0.05142942     1.39100
O154        O  0.45179783  0.21596865  0.06103818    -1.23200
O155        O  0.32027827  0.94533033  0.99625800    -0.85500
O156        O  0.33066810  0.90250995  0.95960668    -0.82500
C157        C  0.32898102  0.88610165  0.93879101     0.98000
O158        O  0.31533723  0.89345004  0.91699416    -0.82500
O159        O  0.26087512  0.89387757  0.93873365    -0.85200
C160        C  0.23980230  0.90214186  0.95292481     1.02500
O161        O  0.23617839  0.92826519  0.95763926    -0.78000
O162        O  0.27470625  0.93707295  0.99982254    -0.78100
C163        C  0.29908041  0.93747230  0.01051685     1.02500
O164        O  0.32710626  0.98532202  0.95122075    -0.85500
O165        O  0.34209657  0.94275732  0.91492298    -0.82500
C166        C  0.32934710  0.95059319  0.89268819     0.98000
O167        O  0.30317712  0.94674265  0.88991988    -0.82600
O168        O  0.24791819  0.94296970  0.90548653    -0.85200
C169        C  0.24314197  0.96881621  0.91029296     1.02500
O170        O  0.25349297  0.98058723  0.93181152    -0.78000
O171        O  0.28899909  0.99130514  0.97677436    -0.78100
C172        C  0.31175607  0.00090177  0.96644030     1.02400
Cr173      Cr  0.32749621  0.94374637  0.95476249     1.93700
Cr174      Cr  0.28248709  0.92061650  0.91495097     1.93200
Cr175      Cr  0.26524100  0.95810291  0.96494679     1.39100
O176        O  0.29177196  0.94088967  0.94503158    -1.23200
O177        O  0.44444749  0.98829259  0.24454730    -0.85500
O178        O  0.43576510  0.94703752  0.28526399    -0.82500
C179        C  0.41022158  0.94032679  0.28137981     0.98000
O180        O  0.40314265  0.92706029  0.25937610    -0.82500
O181        O  0.40485119  0.90696070  0.20468601    -0.85200
C182        C  0.39992521  0.92770666  0.18844544     1.02500
O183        O  0.41722254  0.94793127  0.18686515    -0.78000
O184        O  0.46051062  0.98396089  0.20119891    -0.78100
C185        C  0.44982534  0.99891485  0.22067796     1.02500
O186        O  0.50039473  0.96633416  0.23506217    -0.85500
O187        O  0.48901521  0.92254491  0.27048796    -0.82500
C188        C  0.47806165  0.89970134  0.27856920     0.98000
O189        O  0.45245232  0.89414554  0.27315390    -0.82600
O190        O  0.45638663  0.87740468  0.21830950    -0.85200
C191        C  0.46032836  0.87936343  0.19208273     1.02500
O192        O  0.45627593  0.90259326  0.17947864    -0.78000
O193        O  0.49909707  0.93699162  0.19940989    -0.78100
C194        C  0.51292253  0.95325926  0.21537472     1.02400
Cr195      Cr  0.46617275  0.95452472  0.25693564     1.93700
Cr196      Cr  0.43061198  0.90364218  0.23832849     1.93200
Cr197      Cr  0.45785128  0.94224575  0.19431083     1.39100
O198        O  0.45137182  0.93346163  0.22984140    -1.23200
O199        O  0.74284424  0.03735465  0.01670008    -0.85500
O200        O  0.77950520  0.04832589  0.06039820    -0.82500
C201        C  0.77481956  0.07399228  0.06611238     0.98000
O202        O  0.75268670  0.08131736  0.07900115    -0.82500
O203        O  0.69687674  0.08049646  0.09330345    -0.85200
C204        C  0.68457718  0.08653766  0.07026710     1.02500
O205        O  0.68414727  0.06880553  0.05030404    -0.78000
O206        O  0.69909097  0.02249394  0.01768236    -0.78100
C207        C  0.71967470  0.03291411  0.00430097     1.02500
O208        O  0.73073319  0.98256416  0.04151580    -0.85500
O209        O  0.76394034  0.99613213  0.08692796    -0.82500
C210        C  0.77074437  0.00824331  0.10970877     0.98000
O211        O  0.76332358  0.03348521  0.11422286    -0.82600
O212        O  0.70642099  0.02890858  0.12474354    -0.85200
C213        C  0.68035552  0.02609541  0.12008339     1.02500
O214        O  0.67026761  0.03189449  0.09604402    -0.78000
O215        O  0.69155625  0.98693872  0.06585881    -0.78100
C216        C  0.70931392  0.97154390  0.05318883     1.02400
Cr217      Cr  0.75219920  0.01727114  0.05263577     1.93700
Cr218      Cr  0.72940607  0.05447341  0.10066711     1.93200
Cr219      Cr  0.68881532  0.02793386  0.05830711     1.39100
O220        O  0.72360544  0.03326807  0.07052767    -1.23200
O221        O  0.50856488  0.75442262  0.96595231    -0.85500
O222        O  0.54987403  0.71567466  0.95077072    -0.82500
C223        C  0.55636631  0.72339343  0.92591549     0.98000
O224        O  0.56988609  0.74596550  0.92201016    -0.82500
O225        O  0.59106692  0.79923090  0.93110760    -0.85200
C226        C  0.56998326  0.81532995  0.92747239     1.02500
O227        O  0.54951729  0.81464961  0.94451460    -0.78000
O228        O  0.51339655  0.79600996  0.98581363    -0.78100
C229        C  0.49813075  0.77777714  0.97359649     1.02500
O230        O  0.53119209  0.75707703  0.02224581    -0.85500
O231        O  0.57519516  0.72327026  0.00579717    -0.82500
C232        C  0.59784748  0.71650556  0.99358101     0.98000
O233        O  0.60263431  0.72459296  0.96853924    -0.82600
O234        O  0.61966790  0.77816335  0.98059949    -0.85200
C235        C  0.61766043  0.80361749  0.98788169     1.02500
O236        O  0.59477887  0.81707813  0.98473823    -0.78000
O237        O  0.55964716  0.79340978  0.02465771    -0.78100
C238        C  0.54287989  0.77646607  0.03656191     1.02400
Cr239      Cr  0.54277617  0.73951998  0.98526923     1.93700
Cr240      Cr  0.59357452  0.76235172  0.95206820     1.93200
Cr241      Cr  0.55499235  0.80279125  0.98416866     1.39100
O242        O  0.56371542  0.76824364  0.97376653    -1.23200
O243        O  0.56274937  0.01695041  0.83792238    -0.85500
O244        O  0.57806399  0.07090830  0.85257151    -0.82500
C245        C  0.60221965  0.07227003  0.84112483     0.98000
O246        O  0.60439602  0.07468183  0.81466666    -0.82500
O247        O  0.59056343  0.06886026  0.75845006    -0.85200
C248        C  0.59451756  0.04270895  0.75411698     1.02500
O249        O  0.57823475  0.02474792  0.76496803    -0.78000
O250        O  0.54032345  0.00037422  0.80096986    -0.78100
C251        C  0.55490668  0.99625067  0.82310466     1.02500
O252        O  0.50540992  0.03509250  0.82936172    -0.85500
O253        O  0.52177797  0.08922998  0.83816149    -0.82500
C254        C  0.53415613  0.11258501  0.83549056     0.98000
O255        O  0.55755633  0.11378572  0.82243831    -0.82600
O256        O  0.54093564  0.10282766  0.76819072    -0.85200
C257        C  0.53162629  0.08955595  0.74709677     1.02500
O258        O  0.53597433  0.06330138  0.74436888    -0.78000
O259        O  0.49936026  0.04253160  0.78403583    -0.78100
C260        C  0.48926480  0.03799014  0.80821680     1.02400
Cr261      Cr  0.54265221  0.05339118  0.83700617     1.93700
Cr262      Cr  0.57199782  0.08800966  0.79156576     1.93200
Cr263      Cr  0.53935824  0.03445625  0.77543478     1.39100
O264        O  0.55138202  0.05855817  0.80130100    -1.23200
O265        O  0.05229801  0.47919983  0.19941242    -0.85500
O266        O  0.06540799  0.42673760  0.17992181    -0.82500
C267        C  0.09077051  0.42673133  0.18835728     0.98000
O268        O  0.09604451  0.42228819  0.21403953    -0.82500
O269        O  0.08892767  0.42284154  0.27132258    -0.85200
C270        C  0.09314179  0.44869183  0.27658283     1.02500
O271        O  0.07484841  0.46681406  0.27003728    -0.78000
O272        O  0.03417846  0.49381097  0.23950804    -0.78100
C273        C  0.04614022  0.49906562  0.21600368     1.02500
O274        O  0.99643173  0.46173786  0.21240761    -0.85500
O275        O  0.01128885  0.40704733  0.19862894    -0.82500
C276        C  0.02456579  0.38392627  0.19807890     0.98000
O277        O  0.04929806  0.38246013  0.20843711    -0.82600
O278        O  0.03964218  0.38860008  0.26483823    -0.85200
C279        C  0.03193394  0.39967820  0.28778322     1.02500
O280        O  0.03430691  0.42615822  0.29157764    -0.78000
O281        O  0.99420637  0.45076781  0.25735733    -0.78100
C282        C  0.98256832  0.45950219  0.23511328     1.02400
Cr283      Cr  0.03211008  0.44304768  0.20001547     1.93700
Cr284      Cr  0.06691343  0.40611650  0.23927786     1.93200
Cr285      Cr  0.03508839  0.45769035  0.26270351     1.39100
O286        O  0.04451262  0.43555014  0.23418537    -1.23200
O287        O  0.99099637  0.30070005  0.95954881    -0.85500
O288        O  0.93868678  0.32276370  0.94678233    -0.82500
C289        C  0.93462768  0.31203745  0.92264017     0.98000
O290        O  0.93071508  0.28583256  0.92018344    -0.82500
O291        O  0.93012621  0.22919419  0.93397017    -0.85200
C292        C  0.95540738  0.22113850  0.93042652     1.02500
O293        O  0.97452356  0.22895651  0.94722188    -0.78000
O294        O  0.00393889  0.26296364  0.98338597    -0.78100
C295        C  0.01001217  0.28391143  0.96776177     1.02500
O296        O  0.97549042  0.29578497  0.01769480    -0.85500
O297        O  0.92108431  0.31073652  0.00336707    -0.82500
C298        C  0.89737437  0.31088696  0.99117867     0.98000
O299        O  0.89396701  0.29795113  0.96791277    -0.82600
O300        O  0.89795041  0.24264387  0.98356235    -0.85200
C301        C  0.90844197  0.22034815  0.99357906     1.02500
O302        O  0.93450530  0.21504662  0.99051841    -0.78000
O303        O  0.96080532  0.25276022  0.02595417    -0.78100
C304        C  0.97081636  0.27575021  0.03474857     1.02400
Cr305      Cr  0.95588500  0.30506345  0.98130221     1.93700
Cr306      Cr  0.91542371  0.26425389  0.95281665     1.93200
Cr307      Cr  0.96687702  0.24192170  0.98588241     1.39100
O308        O  0.94602043  0.27026287  0.97330029    -1.23200
O309        O  0.22892782  0.46660283  0.01387205    -0.85500
O310        O  0.26595913  0.43012616  0.98882847    -0.82500
C311        C  0.27381608  0.41108013  0.97199231     0.98000
O312        O  0.26333623  0.40948773  0.94738938    -0.82500
O313        O  0.20543368  0.39782233  0.94744195    -0.85200
C314        C  0.17917895  0.40217426  0.94902094     1.02500
O315        O  0.17013084  0.42718362  0.94964747    -0.78000
O316        O  0.19063300  0.44318996  0.00141249    -0.78100
C317        C  0.20780062  0.45128216  0.02016732     1.02500
O318        O  0.23948371  0.50674704  0.96804518    -0.85500
O319        O  0.27791990  0.46988523  0.94510437    -0.82500
C320        C  0.27421510  0.46716447  0.91874195     0.98000
O321        O  0.25313095  0.45437252  0.90886919    -0.82600
O322        O  0.19736428  0.44186451  0.90498592    -0.85200
C323        C  0.18536979  0.46591941  0.90532849     1.02500
O324        O  0.18503640  0.48063440  0.92757178    -0.78000
O325        O  0.19618784  0.49926824  0.98155496    -0.78100
C326        C  0.21571430  0.51614333  0.97537843     1.02400
Cr327      Cr  0.25093014  0.46722983  0.97736684     1.93700
Cr328      Cr  0.22940033  0.42758456  0.92946656     1.93200
Cr329      Cr  0.18816319  0.46186660  0.96453725     1.39100
O330        O  0.22321933  0.45212209  0.95711928    -1.23200
O331        O  0.00447956  0.73277002  0.05631646    -0.85500
O332        O  0.04561349  0.77040710  0.07269351    -0.82500
C333        C  0.04990950  0.76291904  0.09805505     0.98000
O334        O  0.06314677  0.74046842  0.10338941    -0.82500
O335        O  0.08168221  0.68623262  0.09777955    -0.85200
C336        C  0.05913855  0.67212525  0.10106796     1.02500
O337        O  0.04031769  0.67261001  0.08221752    -0.78000
O338        O  0.00836839  0.69081493  0.03735373    -0.78100
C339        C  0.99356363  0.70939552  0.04963317     1.02500
O340        O  0.03082741  0.72744036  0.00133696    -0.85500
O341        O  0.07445832  0.76104489  0.02008055    -0.82500
C342        C  0.09626191  0.76793203  0.03379918     0.98000
O343        O  0.10009540  0.75878314  0.05867396    -0.82600
O344        O  0.11480733  0.70360906  0.04928480    -0.85200
C345        C  0.11210074  0.67785748  0.04324863     1.02500
O346        O  0.08843869  0.66571399  0.04587407    -0.78000
O347        O  0.05774618  0.68977505  0.00244672    -0.78100
C348        C  0.04266136  0.70696371  0.98869028     1.02400
Cr349      Cr  0.04023478  0.74590318  0.03854393     1.93700
Cr350      Cr  0.08787873  0.72197120  0.07558117     1.93200
Cr351      Cr  0.04948290  0.68222687  0.04264303     1.39100
O352        O  0.05926533  0.71677640  0.05219217    -1.23200
O353        O  0.94800214  0.49079745  0.78084212    -0.85500
O354        O  0.93594821  0.53127342  0.74020416    -0.82500
C355        C  0.91059561  0.53887212  0.74431251     0.98000
O356        O  0.90397993  0.55278784  0.76606266    -0.82500
O357        O  0.90638792  0.57243047  0.82068108    -0.85200
C358        C  0.90143194  0.55119895  0.83625049     1.02500
O359        O  0.91831155  0.53055659  0.83656059    -0.78000
O360        O  0.96382085  0.49604359  0.82400568    -0.78100
C361        C  0.95371969  0.48054906  0.80479852     1.02500
O362        O  0.00321255  0.51614267  0.78938395    -0.85500
O363        O  0.98889117  0.55813247  0.75222705    -0.82500
C364        C  0.97700719  0.58050472  0.74398047     0.98000
O365        O  0.95196494  0.58623944  0.75130458    -0.82600
O366        O  0.95769818  0.60225669  0.80673672    -0.85200
C367        C  0.96133401  0.59989225  0.83303158     1.02500
O368        O  0.95573382  0.57680577  0.84520266    -0.78000
O369        O  0.99957260  0.54427610  0.82600719    -0.78100
C370        C  0.01448678  0.52906972  0.81003352     1.02400
Cr371      Cr  0.96781537  0.52556563  0.76759536     1.93700
Cr372      Cr  0.93152720  0.57618341  0.78671044     1.93200
Cr373      Cr  0.95885520  0.53751201  0.83027854     1.39100
O374        O  0.95269814  0.54640877  0.79469899    -1.23200
O375        O  0.82518977  0.55949593  0.04101004    -0.85500
O376        O  0.84218440  0.57425143  0.09537802    -0.82500
C377        C  0.82923371  0.59747966  0.09750309     0.98000
O378        O  0.80276628  0.59776909  0.10037941    -0.82500
O379        O  0.74751208  0.57985534  0.09693725    -0.85200
C380        C  0.74092259  0.58196022  0.07106464     1.02500
O381        O  0.75131079  0.56535621  0.05312119    -0.78000
O382        O  0.79014766  0.53249321  0.02713493    -0.78100
C383        C  0.80981584  0.54973800  0.02144535     1.02500
O384        O  0.82425420  0.50148668  0.05761557    -0.85500
O385        O  0.83332912  0.51706422  0.11231956    -0.82500
C386        C  0.82858055  0.52753726  0.13634718     0.98000
O387        O  0.81514707  0.55066603  0.13856137    -0.82600
O388        O  0.76174973  0.53155828  0.13106918    -0.85200
C389        C  0.74156427  0.51927343  0.11883721     1.02500
O390        O  0.73848821  0.52141451  0.09238899    -0.78000
O391        O  0.78121565  0.48941455  0.06916683    -0.78100
C392        C  0.80571794  0.48262480  0.06124446     1.02400
Cr393      Cr  0.82870795  0.53857234  0.07714994     1.93700
Cr394      Cr  0.78254438  0.56364241  0.11453486     1.93200
Cr395      Cr  0.76710117  0.52826072  0.06221205     1.39100
O396        O  0.79261615  0.54353511  0.08466629    -1.23200
O397        O  0.53445823  0.50795336  0.27780385    -0.85500
O398        O  0.56900417  0.47249821  0.24774372    -0.82500
C399        C  0.58551153  0.45220613  0.24290040     0.98000
O400        O  0.58178744  0.42834052  0.25451142    -0.82500
O401        O  0.59644655  0.43528097  0.31025614    -0.85200
C402        C  0.59497258  0.44434065  0.33522954     1.02500
O403        O  0.57149181  0.45176753  0.34551075    -0.78000
O404        O  0.55947599  0.49966000  0.31587739    -0.78100
C405        C  0.55065840  0.51668808  0.29745231     1.02500
O406        O  0.49109302  0.46411000  0.27495134    -0.85500
O407        O  0.52481783  0.43163140  0.24024514    -0.82500
C408        C  0.52207552  0.40641563  0.24903907     0.98000
O409        O  0.53126882  0.39965112  0.27300018    -0.82600
O410        O  0.54756226  0.40317591  0.32780476    -0.85200
C411        C  0.52556515  0.40984337  0.34162913     1.02500
O412        O  0.51454392  0.43398753  0.33902031    -0.78000
O413        O  0.50055925  0.48519294  0.31502261    -0.78100
C414        C  0.48298689  0.47760036  0.29635130     1.02400
Cr415      Cr  0.53071939  0.46776554  0.26239864     1.93700
Cr416      Cr  0.56283682  0.41901915  0.29141429     1.93200
Cr417      Cr  0.53695081  0.46656767  0.32639655     1.39100
O418        O  0.54353876  0.45096660  0.29333042    -1.23200
O419        O  0.50734423  0.69269291  0.46073026    -0.85500
O420        O  0.55761952  0.66895339  0.44550530    -0.82500
C421        C  0.56183383  0.67927791  0.42112698     0.98000
O422        O  0.56857219  0.70494254  0.41853265    -0.82500
O423        O  0.57249402  0.76161230  0.43184709    -0.85200
C424        C  0.54762832  0.77027677  0.42741244     1.02500
O425        O  0.52786143  0.76315330  0.44376289    -0.78000
O426        O  0.49673882  0.73250246  0.48200351    -0.78100
C427        C  0.48934837  0.71089447  0.46806857     1.02500
O428        O  0.52634839  0.69850528  0.51809164    -0.85500
O429        O  0.57893228  0.68031014  0.50170851    -0.82500
C430        C  0.60186743  0.67851088  0.48834278     0.98000
O431        O  0.60501877  0.69127402  0.46505202    -0.82600
O432        O  0.60378255  0.74706635  0.48122010    -0.85200
C433        C  0.59431914  0.77034360  0.49002842     1.02500
O434        O  0.56853079  0.77679610  0.48668342    -0.78000
O435        O  0.53976684  0.74255160  0.52368111    -0.78100
C436        C  0.53060770  0.71971968  0.53377450     1.02400
Cr437      Cr  0.54337859  0.68759507  0.48091650     1.93700
Cr438      Cr  0.58516520  0.72598854  0.45075524     1.93200
Cr439      Cr  0.53476053  0.75157360  0.48309988     1.39100
O440        O  0.55442425  0.72178092  0.47169840    -1.23200
O441        O  0.26532422  0.54356000  0.50903506    -0.85500
O442        O  0.22681495  0.55777764  0.46785956    -0.82500
C443        C  0.23296383  0.58355404  0.46422899     0.98000
O444        O  0.25523663  0.59043154  0.45136771    -0.82500
O445        O  0.30956644  0.58728651  0.43105999    -0.85200
C446        C  0.32461169  0.59053052  0.45293366     1.02500
O447        O  0.32564316  0.57136136  0.47135863    -0.78000
O448        O  0.30870430  0.52773750  0.50459691    -0.78100
C449        C  0.28959109  0.53928043  0.51933658     1.02500
O450        O  0.27312171  0.48912350  0.48364468    -0.85500
O451        O  0.23951456  0.50571973  0.43875572    -0.82500
C452        C  0.23245493  0.51937299  0.41691243     0.98000
O453        O  0.23871496  0.54524758  0.41456011    -0.82600
O454        O  0.29346733  0.53896040  0.39811712    -0.85200
C455        C  0.31876203  0.53115906  0.40075076     1.02500
O456        O  0.33158334  0.53355450  0.42408836    -0.78000
O457        O  0.31037514  0.49081915  0.45648470    -0.78100
C458        C  0.29410502  0.47697762  0.47232830     1.02400
Cr459      Cr  0.25310586  0.52506499  0.47332572     1.93700
Cr460      Cr  0.27471961  0.56379719  0.42591338     1.93200
Cr461      Cr  0.31650927  0.53153414  0.46337178     1.39100
O462        O  0.28151041  0.54014509  0.45418525    -1.23200
O463        O  0.45338840  0.50821875  0.70276851    -0.85500
O464        O  0.40936299  0.54357979  0.69186319    -0.82500
C465        C  0.39243343  0.56404227  0.69327367     0.98000
O466        O  0.39954069  0.58622070  0.70636958    -0.82500
O467        O  0.40207552  0.56645181  0.76100589    -0.85200
C468        C  0.41076793  0.55297350  0.78229425     1.02500
O469        O  0.43699058  0.54906785  0.78608177    -0.78000
O470        O  0.44634987  0.50557384  0.74865147    -0.78100
C471        C  0.44693454  0.49414116  0.72455718     1.02500
O472        O  0.49218336  0.55367888  0.69376769    -0.85500
O473        O  0.44848815  0.58860030  0.67818517    -0.82500
C474        C  0.45463255  0.61213722  0.68946313     0.98000
O475        O  0.45186694  0.61550785  0.71576524    -0.82600
O476        O  0.45019302  0.60132563  0.77207105    -0.85200
C477        C  0.47619274  0.59728335  0.77682604     1.02500
O478        O  0.48833836  0.57575728  0.76688143    -0.78000
O479        O  0.49920018  0.52972937  0.73278568    -0.78100
C480        C  0.50816443  0.53916069  0.70942737     1.02400
Cr481      Cr  0.45065380  0.54937587  0.69424573     1.93700
Cr482      Cr  0.42744526  0.59016889  0.73825897     1.93200
Cr483      Cr  0.46639955  0.54158815  0.75665536     1.39100
O484        O  0.44828409  0.56026132  0.72967294    -1.23200
O485        O  0.49930232  0.25781206  0.56746505    -0.85500
O486        O  0.45587764  0.22105443  0.57969370    -0.82500
C487        C  0.45178647  0.22490331  0.60592751     0.98000
O488        O  0.43987807  0.24711442  0.61472198    -0.82500
O489        O  0.42179476  0.30264670  0.61623113    -0.85200
C490        C  0.44389902  0.31663146  0.62191467     1.02500
O491        O  0.46412305  0.31672303  0.60458723    -0.78000
O492        O  0.49703371  0.30344367  0.55879140    -0.78100
C493        C  0.51099892  0.28165990  0.56553058     1.02500
O494        O  0.47320400  0.27306933  0.51527421    -0.85500
O495        O  0.42723889  0.23975121  0.52889121    -0.82500
C496        C  0.40631026  0.23010029  0.54221715     0.98000
O497        O  0.40316068  0.23581404  0.56814592    -0.82600
O498        O  0.39034079  0.29247998  0.56493015    -0.85200
C499        C  0.39417999  0.31864039  0.56161454     1.02500
O500        O  0.41771340  0.32974055  0.56767601    -0.78000
O501        O  0.44911533  0.31194426  0.52266928    -0.78100
C502        C  0.46282437  0.29603660  0.50632440     1.02400
Cr503      Cr  0.46247796  0.24990705  0.54917862     1.93700
Cr504      Cr  0.41589884  0.27004507  0.58949767     1.93200
Cr505      Cr  0.45626112  0.31281452  0.56370138     1.39100
O506        O  0.44515404  0.27755400  0.56758350    -1.23200
O507        O  0.69171695  0.45378814  0.51603003    -0.85500
O508        O  0.67824649  0.40801933  0.54901200    -0.82500
C509        C  0.67888737  0.39045861  0.56908979     0.98000
O510        O  0.69065777  0.39715396  0.59215957    -0.82500
O511        O  0.74596691  0.39634055  0.57572146    -0.85200
C512        C  0.76824482  0.40376754  0.56312601     1.02500
O513        O  0.77320521  0.42953193  0.55780521    -0.78000
O514        O  0.73641586  0.44163916  0.51423328    -0.78100
C515        C  0.71272662  0.44469016  0.50242238     1.02500
O516        O  0.68406775  0.49009976  0.56342351    -0.85500
O517        O  0.66452843  0.44533838  0.59468752    -0.82500
C518        C  0.67494243  0.45244412  0.61821135     0.98000
O519        O  0.70102021  0.44917400  0.62286184    -0.82600
O520        O  0.75795498  0.44354405  0.61109923    -0.85200
C521        C  0.76547043  0.46877504  0.60689295     1.02500
O522        O  0.75749078  0.48162920  0.58491992    -0.78000
O523        O  0.72355788  0.49567033  0.53968783    -0.78100
C524        C  0.70116757  0.50586858  0.55038635     1.02400
Cr525      Cr  0.68221229  0.44898092  0.55662062     1.93700
Cr526      Cr  0.72345560  0.42313771  0.59840362     1.93200
Cr527      Cr  0.74559516  0.46092967  0.55048119     1.39100
O528        O  0.71721818  0.44441472  0.56840662    -1.23200
C529        C  0.64262649  0.32198155  0.58920961    -0.27700
C530        C  0.62490274  0.31805350  0.56580786     0.01900
C531        C  0.62893954  0.33468822  0.54146333     0.30000
C532        C  0.64817412  0.35712378  0.54204283    -0.19500
C533        C  0.66371771  0.36313728  0.56666459    -0.28900
C534        C  0.66212274  0.34413622  0.58972484     0.44000
C535        C  0.59792234  0.30296910  0.56981220     0.05200
O536        O  0.61170319  0.33147877  0.51834969    -0.57400
H537        H  0.64936107  0.37098235  0.52384344     0.18100
O538        O  0.67765360  0.34831580  0.61386244    -0.64200
H539        H  0.63968723  0.30926220  0.60805559     0.16600
C540        C  0.58932199  0.28057583  0.55218446     0.28800
C541        C  0.56104612  0.27158020  0.55264458    -0.25100
C542        C  0.54139731  0.28504786  0.57038014    -0.24300
C543        C  0.55060246  0.30590996  0.58938390     0.40300
C544        C  0.57869819  0.31456197  0.58916034    -0.26800
O545        O  0.60783165  0.26871385  0.53328263    -0.58700
H546        H  0.55405084  0.25565757  0.53773952     0.15900
O547        O  0.53175675  0.31953702  0.60672358    -0.60100
H548        H  0.58499508  0.33193724  0.60270989     0.14400
H549        H  0.69583146  0.33842864  0.61044927     0.46200
H550        H  0.61834230  0.25425271  0.54426133     0.41600
H551        H  0.53099970  0.30794389  0.62418625     0.45000
H552        H  0.62316585  0.32079131  0.50441557     0.36500
C553        C  0.45742012  0.41513540  0.72433675    -0.27700
C554        C  0.44019836  0.40759974  0.70131646     0.01900
C555        C  0.42201020  0.42797519  0.68940808     0.30000
C556        C  0.42266047  0.45580840  0.69912182    -0.19500
C557        C  0.44117764  0.46382427  0.72081070    -0.28900
C558        C  0.45773575  0.44309136  0.73435492     0.44000
C559        C  0.44360153  0.37997119  0.68698940     0.05200
O560        O  0.40502091  0.42136466  0.66682555    -0.57400
H561        H  0.40989488  0.47160958  0.68847361     0.18100
O562        O  0.47631152  0.45047410  0.75535682    -0.64200
H563        H  0.47155850  0.39966712  0.73361927     0.16600
C564        C  0.46865275  0.37379727  0.67217097     0.28800
C565        C  0.46912959  0.35172121  0.65244018    -0.25100
C566        C  0.44480244  0.33542453  0.64715395    -0.24300
C567        C  0.42050042  0.34016710  0.66395162     0.40300
C568        C  0.42011451  0.36226277  0.68365465    -0.26800
O569        O  0.49185321  0.39099311  0.67468358    -0.58700
H570        H  0.48813270  0.34851895  0.64006508     0.15900
O571        O  0.39643189  0.32443168  0.66028575    -0.60100
H572        H  0.40074691  0.36676132  0.69504591     0.14400
H573        H  0.46571374  0.44773780  0.77324005     0.46200
H574        H  0.50389134  0.38185423  0.68923549     0.41600
H575        H  0.38430536  0.33576397  0.64742983     0.45000
H576        H  0.41693764  0.42442161  0.64983600     0.36500
C577        C  0.63991658  0.50380763  0.66836999    -0.27700
C578        C  0.61257521  0.49235758  0.66928379     0.01900
C579        C  0.60720413  0.46604889  0.65666008     0.30000
C580        C  0.62858639  0.45222375  0.64186387    -0.19500
C581        C  0.65561476  0.46419436  0.63955143    -0.28900
C582        C  0.66154731  0.48975548  0.65364364     0.44000
C583        C  0.58873687  0.50872849  0.68077976     0.05200
O584        O  0.58055436  0.45462236  0.65707041    -0.57400
H585        H  0.62366404  0.43267831  0.63096477     0.18100
O586        O  0.68742376  0.50249009  0.65079338    -0.64200
H587        H  0.64408810  0.52421598  0.67788000     0.16600
C588        C  0.58158612  0.50714861  0.70952917     0.28800
C589        C  0.55585673  0.51839544  0.71889378    -0.25100
C590        C  0.53692144  0.53125104  0.69977362    -0.24300
C591        C  0.54483760  0.53369927  0.67106608     0.40300
C592        C  0.57063386  0.52259780  0.66187474    -0.26800
O593        O  0.59867533  0.49299115  0.72822235    -0.58700
H594        H  0.55028135  0.51610029  0.74100125     0.15900
O595        O  0.52698368  0.54551960  0.65147002    -0.60100
H596        H  0.57589392  0.52350570  0.63957781     0.14400
H597        H  0.69869740  0.49568932  0.66712579     0.46200
H598        H  0.61321478  0.50693249  0.73399358     0.41600
H599        H  0.51576743  0.52951333  0.64387109     0.45000
H600        H  0.57922715  0.44448087  0.67538400     0.36500
C601        C  0.33345672  0.53623926  0.64730061    -0.27700
C602        C  0.32516356  0.56111199  0.63350343     0.01900
C603        C  0.33476025  0.58733375  0.64364573     0.30000
C604        C  0.35471914  0.58824252  0.66552362    -0.19500
C605        C  0.36577144  0.56309115  0.67691528    -0.28900
C606        C  0.35362237  0.53706343  0.66892301     0.44000
C607        C  0.31436368  0.55873159  0.60438059     0.05200
O608        O  0.32654332  0.61196572  0.63068120    -0.57400
H609        H  0.36344463  0.60851112  0.67163214     0.18100
O610        O  0.36292811  0.51213514  0.68047803    -0.64200
H611        H  0.32633333  0.51592161  0.63947918     0.16600
C612        C  0.33403482  0.55881768  0.58215265     0.28800
C613        C  0.32523133  0.55327350  0.55467094    -0.25100
C614        C  0.29676537  0.54745904  0.54862448    -0.24300
C615        C  0.27670087  0.54855088  0.57070112     0.40300
C616        C  0.28568074  0.55378809  0.59859427    -0.26800
O617        O  0.36220025  0.56356810  0.58729102    -0.58700
H618        H  0.34098322  0.55304054  0.53802654     0.15900
O619        O  0.24872564  0.54296924  0.56557103    -0.60100
H620        H  0.27045527  0.55343868  0.61570140     0.14400
H621        H  0.34993000  0.50833893  0.69648846     0.46200
H622        H  0.37039907  0.54464673  0.59114995     0.41600
H623        H  0.23998892  0.56167162  0.56183760     0.45000
H624        H  0.34143171  0.61600287  0.61647463     0.36500
C625        C  0.34979125  0.38313068  0.54728747    -0.27700
C626        C  0.33641711  0.37540928  0.52199180     0.01900
C627        C  0.33952870  0.34774821  0.51156747     0.30000
C628        C  0.35692130  0.32848396  0.52588483    -0.19500
C629        C  0.37169507  0.33682418  0.55025306    -0.28900
C630        C  0.36758518  0.36415883  0.56126648     0.44000
C631        C  0.32167159  0.39746789  0.50563560     0.05200
O632        O  0.32665971  0.33978945  0.48683338    -0.57400
H633        H  0.36017758  0.30760031  0.51704281     0.18100
O634        O  0.38111102  0.37254967  0.58554638    -0.64200
H635        H  0.34750370  0.40440867  0.55547509     0.16600
C636        C  0.29757820  0.41083056  0.51663850     0.28800
C637        C  0.28727740  0.43543880  0.50390439    -0.25100
C638        C  0.30130164  0.44759658  0.48062911    -0.24300
C639        C  0.32433709  0.43294722  0.46845130     0.40300
C640        C  0.33429928  0.40804364  0.48099521    -0.26800
O641        O  0.28458718  0.40048179  0.54042875    -0.58700
H642        H  0.26937184  0.44598631  0.51354337     0.15900
O643        O  0.33844594  0.44362887  0.44547740    -0.60100
H644        H  0.35301847  0.39791916  0.47248185     0.14400
H645        H  0.39743445  0.38402911  0.57912046     0.46200
H646        H  0.29163546  0.41233158  0.55622592     0.41600
H647        H  0.32883142  0.43535383  0.42878258     0.45000
H648        H  0.30719661  0.33427656  0.49232738     0.36500
C649        C  0.65181836  0.63746268  0.53537339    -0.27700
C650        C  0.65900406  0.61483869  0.51745770     0.01900
C651        C  0.64904117  0.61485053  0.48931774     0.30000
C652        C  0.63181473  0.63687810  0.47974689    -0.19500
C653        C  0.62363387  0.65865357  0.49802362    -0.28900
C654        C  0.63411821  0.65924530  0.52582907     0.44000
C655        C  0.67376017  0.58968684  0.52905465     0.05200
O656        O  0.65361512  0.59204759  0.47195310    -0.57400
H657        H  0.62333077  0.63597204  0.45845504     0.18100
O658        O  0.62658469  0.68057381  0.54396732    -0.64200
H659        H  0.65921852  0.63773782  0.55706429     0.16600
C660        C  0.69696956  0.57740371  0.51500283     0.28800
C661        C  0.70668378  0.55065695  0.52309379    -0.25100
C662        C  0.69384622  0.53594153  0.54551288    -0.24300
C663        C  0.67253150  0.54955673  0.56136168     0.40300
C664        C  0.66265201  0.57618847  0.55304104    -0.26800
O665        O  0.70958154  0.59087493  0.49263206    -0.58700
H666        H  0.72350181  0.54094234  0.51094254     0.15900
O667        O  0.66104034  0.53695867  0.58484877    -0.60100
H668        H  0.64521073  0.58562002  0.56452656     0.14400
H669        H  0.64161183  0.69504392  0.54193854     0.46200
H670        H  0.72508205  0.60215791  0.50108995     0.41600
H671        H  0.64261647  0.52918852  0.57853580     0.45000
H672        H  0.66580647  0.59913011  0.45642663     0.36500
C673        C  0.42428442  0.67946170  0.43514103    -0.27700
C674        C  0.40506144  0.68145738  0.45765266     0.01900
C675        C  0.41208789  0.69816962  0.48132464     0.30000
C676        C  0.43913782  0.70996935  0.48353739    -0.19500
C677        C  0.45930961  0.70527223  0.46228859    -0.28900
C678        C  0.45125632  0.69125834  0.43733260     0.44000
C679        C  0.38065669  0.66187144  0.45831351     0.05200
O680        O  0.39340523  0.70133115  0.50327841    -0.57400
H681        H  0.44497977  0.72094426  0.50278776     0.18100
O682        O  0.46997727  0.68831686  0.41534826    -0.64200
H683        H  0.41933700  0.66678751  0.41672687     0.16600
C684        C  0.36248452  0.65877189  0.43494023     0.28800
C685        C  0.34333604  0.63620053  0.43405233    -0.25100
C686        C  0.34223123  0.61624886  0.45612208    -0.24300
C687        C  0.35924691  0.62053628  0.48029835     0.40300
C688        C  0.37830111  0.64302129  0.48110850    -0.26800
O689        O  0.36345591  0.67762507  0.41287312    -0.58700
H690        H  0.33008491  0.63380085  0.41551403     0.15900
O691        O  0.35860011  0.60213525  0.50272263    -0.60100
H692        H  0.39241303  0.64478502  0.49908341     0.14400
H693        H  0.47509015  0.66799840  0.41501815     0.46200
H694        H  0.37118867  0.66689730  0.39659074     0.41600
H695        H  0.34383123  0.60966085  0.51557130     0.45000
H696        H  0.38164481  0.71790674  0.49809367     0.36500
C697        C  0.48922726  0.68025813  0.66361046    -0.27700
C698        C  0.48618789  0.67713008  0.63429613     0.01900
C699        C  0.47169149  0.65360169  0.62346651     0.30000
C700        C  0.46109906  0.63309426  0.64175826    -0.19500
C701        C  0.46445726  0.63562168  0.67117516    -0.28900
C702        C  0.47816256  0.65983932  0.68212848     0.44000
C703        C  0.50029681  0.69645812  0.61434924     0.05200
O704        O  0.46924096  0.64966053  0.59481485    -0.57400
H705        H  0.45061076  0.61485736  0.63271807     0.18100
O706        O  0.48218195  0.66307147  0.71067453    -0.64200
H707        H  0.50064331  0.69821080  0.67206968     0.16600
C708        C  0.48418086  0.71480279  0.59732056     0.28800
C709        C  0.49557882  0.72520022  0.57205173    -0.25100
C710        C  0.52296023  0.71744854  0.56371854    -0.24300
C711        C  0.54000381  0.70155582  0.58216783     0.40300
C712        C  0.52864656  0.69122510  0.60745334    -0.26800
O713        O  0.45636795  0.72006508  0.60361215    -0.58700
H714        H  0.48218323  0.73715434  0.55778129     0.15900
O715        O  0.56671399  0.69353340  0.57423995    -0.60100
H716        H  0.54110845  0.67687350  0.62028104     0.14400
H717        H  0.46599691  0.67470676  0.71719644     0.46200
H718        H  0.45670429  0.73673698  0.61631107     0.41600
H719        H  0.57943513  0.70797039  0.58254332     0.45000
H720        H  0.45084141  0.65829200  0.58962329     0.36500
C721        C  0.64441484  0.46414100  0.39445012    -0.27700
C722        C  0.66306019  0.44107259  0.39469664     0.01900
C723        C  0.66077658  0.42023051  0.37356218     0.30000
C724        C  0.63953581  0.42234657  0.35296441    -0.19500
C725        C  0.62008701  0.44480532  0.35361964    -0.28900
C726        C  0.62299845  0.46605067  0.37425077     0.44000
C727        C  0.68266659  0.43803166  0.41887772     0.05200
O728        O  0.67845052  0.39723346  0.37351953    -0.57400
H729        H  0.63735223  0.40568582  0.33739673     0.18100
O730        O  0.60489836  0.48874754  0.37487660    -0.64200
H731        H  0.64564555  0.48014794  0.41079040     0.16600
C732        C  0.70125799  0.46011193  0.42615244     0.28800
C733        C  0.71426949  0.46030881  0.45276546    -0.25100
C734        C  0.70860113  0.43883384  0.47232905    -0.24300
C735        C  0.69193318  0.41559244  0.46421961     0.40300
C736        C  0.67916467  0.41522234  0.43754209    -0.26800
O737        O  0.70564272  0.48222471  0.40787118    -0.58700
H738        H  0.72673087  0.47848331  0.45900869     0.15900
O739        O  0.68565969  0.39462094  0.48325609    -0.60100
H740        H  0.66464664  0.39827972  0.43237982     0.14400
H741        H  0.59107947  0.48442169  0.39004982     0.46200
H742        H  0.69502551  0.49840712  0.41595894     0.41600
H743        H  0.70258546  0.38223676  0.48360943     0.45000
H744        H  0.69631391  0.40403749  0.36492052     0.36500
C745        C  0.50360238  0.34259559  0.37931169    -0.27700
C746        C  0.49334923  0.35361465  0.40487067     0.01900
C747        C  0.49376518  0.38302217  0.40940135     0.30000
C748        C  0.50376127  0.40102738  0.38827812    -0.19500
C749        C  0.51391185  0.39012660  0.36265656    -0.28900
C750        C  0.51383295  0.36068012  0.35820575     0.44000
C751        C  0.48335557  0.33451145  0.42742526     0.05200
O752        O  0.48604709  0.39414566  0.43508675    -0.57400
H753        H  0.50438102  0.42357203  0.39231652     0.18100
O754        O  0.52346287  0.34942222  0.33328627    -0.64200
H755        H  0.50358511  0.31997262  0.37573253     0.16600
C756        C  0.45616536  0.33778929  0.43902614     0.28800
C757        C  0.44905889  0.32374717  0.46398706    -0.25100
C758        C  0.46857528  0.30577322  0.47729979    -0.24300
C759        C  0.49482410  0.30039944  0.46417400     0.40300
C760        C  0.50210778  0.31491360  0.43943208    -0.26800
O761        O  0.43693304  0.35581004  0.42689019    -0.58700
H762        H  0.42861113  0.32773654  0.47354045     0.15900
O763        O  0.51456563  0.28325458  0.47676470    -0.60100
H764        H  0.52306513  0.31214939  0.43058843     0.14400
H765        H  0.50665652  0.34880124  0.32075424     0.46200
H766        H  0.42657824  0.34414884  0.41288458     0.41600
H767        H  0.51144394  0.26428219  0.46842389     0.45000
H768        H  0.46803263  0.40432070  0.43161283     0.36500
C769        C  0.54399379  0.61698242  0.37386919    -0.27700
C770        C  0.56014176  0.62269735  0.34974010     0.01900
C771        C  0.57602398  0.64777763  0.34843054     0.30000
C772        C  0.57551627  0.66681405  0.37127311    -0.19500
C773        C  0.56005894  0.66056970  0.39597573    -0.28900
C774        C  0.54395927  0.63547712  0.39689076     0.44000
C775        C  0.56237643  0.60020628  0.32815514     0.05200
O776        O  0.59229250  0.65364645  0.32515918    -0.57400
H777        H  0.58813146  0.68588291  0.37011356     0.18100
O778        O  0.52882318  0.62830536  0.42058498    -0.64200
H779        H  0.53210924  0.59744621  0.37528417     0.16600
C780        C  0.58437197  0.58034201  0.33023648     0.28800
C781        C  0.58175582  0.55405800  0.31699463    -0.25100
C782        C  0.55720940  0.54704211  0.30171566    -0.24300
C783        C  0.53684321  0.56825371  0.29671515     0.40300
C784        C  0.53930784  0.59452834  0.31033355    -0.26800
O785        O  0.60721033  0.58536929  0.34742250    -0.58700
H786        H  0.59789377  0.53821396  0.32078450     0.15900
O787        O  0.51290401  0.56250280  0.28143626    -0.60100
H788        H  0.52214464  0.60963434  0.30874561     0.14400
H789        H  0.50871201  0.63113747  0.41541792     0.46200
H790        H  0.60186062  0.57766650  0.36619065     0.41600
H791        H  0.51748164  0.56816445  0.26176931     0.45000
H792        H  0.61138533  0.64630847  0.32982000     0.36500
C793        C  0.35461343  0.52430325  0.32987818    -0.27700
C794        C  0.37237739  0.50105544  0.33509561     0.01900
C795        C  0.36953861  0.48580945  0.36051608     0.30000
C796        C  0.35070831  0.49516377  0.38114771    -0.19500
C797        C  0.33421887  0.51934462  0.37666401    -0.28900
C798        C  0.33528661  0.53331447  0.35042881     0.44000
C799        C  0.39781693  0.49671690  0.31764611     0.05200
O800        O  0.38740436  0.46379018  0.36673601    -0.57400
H801        H  0.34998195  0.48427737  0.40131377     0.18100
O802        O  0.31980817  0.55741467  0.34585822    -0.64200
H803        H  0.35701148  0.53647768  0.31060705     0.16600
C804        C  0.40453192  0.47006842  0.30619551     0.28800
C805        C  0.43217216  0.46449444  0.29716859    -0.25100
C806        C  0.45316078  0.48525123  0.29982043    -0.24300
C807        C  0.44579126  0.51255869  0.30895714     0.40300
C808        C  0.41814780  0.51824116  0.31743536    -0.26800
O809        O  0.38482628  0.44883149  0.30574931    -0.58700
H810        H  0.43764109  0.44342763  0.29001159     0.15900
O811        O  0.46569955  0.53358565  0.31040975    -0.60100
H812        H  0.41321470  0.53887902  0.32609255     0.14400
H813        H  0.30221363  0.55093209  0.33648671     0.46200
H814        H  0.37555458  0.45038360  0.28700018     0.41600
H815        H  0.47143876  0.53445205  0.33057400     0.45000
H816        H  0.37579783  0.44648078  0.36453434     0.36500
C817        C  0.67579968  0.47860896  0.13998113    -0.27700
C818        C  0.67858307  0.47822876  0.16945028     0.01900
C819        C  0.70313791  0.48915464  0.18208597     0.30000
C820        C  0.72402908  0.50145936  0.16525392    -0.19500
C821        C  0.72064194  0.50333976  0.13574181    -0.28900
C822        C  0.69657278  0.49094468  0.12308444     0.44000
C823        C  0.65429253  0.46976794  0.18690416     0.05200
O824        O  0.70626416  0.48916270  0.21094023    -0.57400
H825        H  0.74242549  0.51045810  0.17550622     0.18100
O826        O  0.69233851  0.49192263  0.09439790    -0.64200
H827        H  0.65690230  0.47020037  0.13011996     0.16600
C828        C  0.62886110  0.48503970  0.18499690     0.28800
C829        C  0.60643322  0.47840182  0.20281092    -0.25100
C830        C  0.60894952  0.45672409  0.22295227    -0.24300
C831        C  0.63430992  0.44110876  0.22460623     0.40300
C832        C  0.65681739  0.44770676  0.20656646    -0.26800
O833        O  0.62602376  0.50708289  0.16632069    -0.58700
H834        H  0.58712795  0.49065334  0.20115481     0.15900
O835        O  0.63766994  0.42006000  0.24428935    -0.60100
H836        H  0.67642978  0.43596548  0.20823607     0.14400
H837        H  0.70061721  0.47411625  0.08703529     0.46200
H838        H  0.63374287  0.52380059  0.17634076     0.41600
H839        H  0.64481083  0.42968346  0.26150392     0.45000
H840        H  0.69696024  0.50678715  0.21748047     0.36500
C841        C  0.87447851  0.51664721  0.67609648    -0.27700
C842        C  0.84600521  0.51771451  0.68410696     0.01900
C843        C  0.83874098  0.52674688  0.71147432     0.30000
C844        C  0.85994533  0.53386456  0.73075261    -0.19500
C845        C  0.88862194  0.53203496  0.72314063    -0.28900
C846        C  0.89575671  0.52379925  0.69530507     0.44000
C847        C  0.82426489  0.50672340  0.66473691     0.05200
O848        O  0.81097469  0.52804437  0.71974801    -0.57400
H849        H  0.85389448  0.54030758  0.75189245     0.18100
O850        O  0.92340169  0.52228369  0.68667357    -0.64200
H851        H  0.88025772  0.50946869  0.65511303     0.16600
C852        C  0.81917502  0.51923809  0.63824495     0.28800
C853        C  0.79929487  0.50726592  0.61984774    -0.25100
C854        C  0.78478657  0.48243257  0.62735826    -0.24300
C855        C  0.78985252  0.47021694  0.65420630     0.40300
C856        C  0.80940528  0.48241302  0.67255619    -0.26800
O857        O  0.83321685  0.54335586  0.63040128    -0.58700
H858        H  0.79576292  0.51706513  0.59943217     0.15900
O859        O  0.77627096  0.44602657  0.66264110    -0.60100
H860        H  0.81343388  0.47248652  0.69283646     0.14400
H861        H  0.92805873  0.54154045  0.67980907     0.46200
H862        H  0.84888324  0.53685631  0.61806950     0.41600
H863        H  0.75921574  0.45260352  0.67292055     0.45000
H864        H  0.80421439  0.54685238  0.71338137     0.36500
C865        C  0.85332013  0.53089024  0.89634125    -0.27700
C866        C  0.84463971  0.55763207  0.90582866     0.01900
C867        C  0.85090901  0.58166900  0.88950881     0.30000
C868        C  0.86756160  0.57897268  0.86525858    -0.19500
C869        C  0.87823422  0.55243094  0.85705208    -0.28900
C870        C  0.86976903  0.52812865  0.87203634     0.44000
C871        C  0.83189026  0.56008153  0.93421121     0.05200
O872        O  0.84217249  0.60801958  0.89789994    -0.57400
H873        H  0.87362171  0.59796654  0.85397951     0.18100
O874        O  0.87883686  0.50173623  0.86416327    -0.64200
H875        H  0.84868757  0.51215831  0.90869549     0.16600
C876        C  0.80924793  0.54259758  0.94209982     0.28800
C877        C  0.80138851  0.54069001  0.97041980    -0.25100
C878        C  0.81583066  0.55608462  0.99140802    -0.24300
C879        C  0.83697674  0.57539815  0.98315073     0.40300
C880        C  0.84487286  0.57723861  0.95467930    -0.26800
O881        O  0.79563350  0.52613670  0.92248057    -0.58700
H882        H  0.78469059  0.52605834  0.97600871     0.15900
O883        O  0.85045700  0.59209031  0.00266881    -0.60100
H884        H  0.86230722  0.59090245  0.94887519     0.14400
H885        H  0.86441248  0.49487494  0.85057982     0.46200
H886        H  0.78177902  0.53889914  0.91324735     0.41600
H887        H  0.86849359  0.58223940  0.00689811     0.45000
H888        H  0.82222336  0.60947240  0.89159817     0.36500
C889        C  0.86015484  0.66587200  0.07061061    -0.27700
C890        C  0.88626550  0.66589300  0.08476939     0.01900
C891        C  0.89117060  0.64610680  0.10643657     0.30000
C892        C  0.87110713  0.62517694  0.11207644    -0.19500
C893        C  0.84590202  0.62376711  0.09647518    -0.28900
C894        C  0.83989375  0.64500169  0.07646205     0.44000
C895        C  0.91049130  0.68159148  0.07285494     0.05200
O896        O  0.91651082  0.64564792  0.12058645    -0.57400
H897        H  0.87601472  0.60892563  0.12749274     0.18100
O898        O  0.81548799  0.64407580  0.06080270    -0.64200
H899        H  0.85634949  0.68077799  0.05361840     0.16600
C900        C  0.92390429  0.67088628  0.04860144     0.28800
C901        C  0.95020717  0.68138074  0.04042535    -0.25100
C902        C  0.96359030  0.70284965  0.05598232    -0.24300
C903        C  0.94915698  0.71508845  0.07909270     0.40300
C904        C  0.92291125  0.70410375  0.08765273    -0.26800
O905        O  0.91265093  0.64833376  0.03425893    -0.58700
H906        H  0.96072546  0.67176895  0.02247609     0.15900
O907        O  0.96146721  0.73607337  0.09484285    -0.60100
H908        H  0.91284857  0.71229413  0.10653390     0.14400
H909        H  0.82026932  0.63280775  0.04376755     0.46200
H910        H  0.90042036  0.65679186  0.01945995     0.41600
H911        H  0.95451763  0.75399008  0.08643210     0.45000
H912        H  0.92899031  0.63318641  0.10922648     0.36500
C913        C  0.00291118  0.70323499  0.91921637    -0.27700
C914        C  0.01488281  0.67884449  0.90752825     0.01900
C915        C  0.03916509  0.66700661  0.91990840     0.30000
C916        C  0.04980614  0.67819998  0.94510519    -0.19500
C917        C  0.03614254  0.70094247  0.95856827    -0.28900
C918        C  0.01351073  0.71453149  0.94444700     0.44000
C919        C  0.99829826  0.66194823  0.88736804     0.05200
O920        O  0.05127004  0.64314054  0.90868124    -0.57400
H921        H  0.06751887  0.66766521  0.95514346     0.18100
O922        O  0.99980514  0.73713387  0.95635459    -0.64200
H923        H  0.98397991  0.71224601  0.90994139     0.16600
C924        C  0.97969880  0.64148751  0.89808505     0.28800
C925        C  0.96669584  0.62250774  0.87980696    -0.25100
C926        C  0.97177399  0.62355737  0.85054484    -0.24300
C927        C  0.98880200  0.64545782  0.83953091     0.40300
C928        C  0.00227052  0.66436751  0.85807213    -0.26800
O929        O  0.97549906  0.63877690  0.92668088    -0.58700
H930        H  0.95329673  0.60623498  0.88877678     0.15900
O931        O  0.99397635  0.64739276  0.81106076    -0.60100
H932        H  0.01649229  0.68024415  0.84971480     0.14400
H933        H  0.00865788  0.75405351  0.94770979     0.46200
H934        H  0.95987476  0.65201707  0.93120290     0.41600
H935        H  0.97917910  0.66030077  0.80366314     0.45000
H936        H  0.04232658  0.62709901  0.91880697     0.36500
C937        C  0.08447843  0.52886734  0.84911408    -0.27700
C938        C  0.10000321  0.50914247  0.83330701     0.01900
C939        C  0.08831745  0.49824793  0.80820197     0.30000
C940        C  0.06089983  0.50589365  0.80013980    -0.19500
C941        C  0.04475567  0.52456155  0.81675702    -0.28900
C942        C  0.05730459  0.53688947  0.84091220     0.44000
C943        C  0.12647191  0.49762297  0.84543730     0.05200
O944        O  0.10305598  0.47923013  0.79201527    -0.57400
H945        H  0.05195182  0.49638023  0.78132319     0.18100
O946        O  0.04272799  0.55552907  0.85770051    -0.64200
H947        H  0.09283074  0.53706658  0.86880296     0.16600
C948        C  0.14719560  0.51569221  0.85684583     0.28800
C949        C  0.16810704  0.50467039  0.87464419    -0.25100
C950        C  0.16879049  0.47571944  0.88096566    -0.24300
C951        C  0.15001374  0.45727603  0.86713457     0.40300
C952        C  0.12880699  0.46832693  0.84976011    -0.26800
O953        O  0.14660376  0.54418342  0.85127859    -0.58700
H954        H  0.18292135  0.51896105  0.88468776     0.15900
O955        O  0.15007702  0.42887973  0.87302801    -0.60100
H956        H  0.11289111  0.45412659  0.84143463     0.14400
H957        H  0.04757718  0.57453807  0.85029089     0.46200
H958        H  0.14211267  0.55346670  0.86954623     0.41600
H959        H  0.16195974  0.42022691  0.85807224     0.45000
H960        H  0.11601328  0.49084557  0.78032792     0.36500
C961        C  0.31863690  0.47966374  0.85366059    -0.27700
C962        C  0.33376048  0.50368188  0.86188158     0.01900
C963        C  0.32964077  0.51547801  0.88879213     0.30000
C964        C  0.31033608  0.50315028  0.90731394    -0.19500
C965        C  0.29495089  0.47917061  0.89913584    -0.28900
C966        C  0.29919194  0.46737966  0.87206210     0.44000
C967        C  0.35343388  0.51664096  0.84191363     0.05200
O968        O  0.34345901  0.53974764  0.89657676    -0.57400
H969        H  0.30696575  0.51271508  0.92786486     0.18100
O970        O  0.28516477  0.44339407  0.86375384    -0.64200
H971        H  0.32195953  0.47045714  0.83293215     0.16600
C972        C  0.38259301  0.51648473  0.84724361     0.28800
C973        C  0.40094966  0.52904731  0.82796488    -0.25100
C974        C  0.39055105  0.54159741  0.80305893    -0.24300
C975        C  0.36113600  0.54162620  0.79785402     0.40300
C976        C  0.34285485  0.52902483  0.81722518    -0.26800
O977        O  0.39331669  0.50376885  0.87103519    -0.58700
H978        H  0.42341891  0.52856703  0.83240286     0.15900
O979        O  0.35004445  0.55302227  0.77357670    -0.60100
H980        H  0.32032168  0.52894946  0.81302566     0.14400
H981        H  0.26938048  0.45013060  0.85167453     0.46200
H982        H  0.39689077  0.48386320  0.86549802     0.41600
H983        H  0.34470818  0.57265474  0.77865678     0.45000
H984        H  0.35904857  0.53345947  0.90912613     0.36500
C985        C  0.16393345  0.61790204  0.03728059    -0.27700
C986        C  0.17594828  0.62325304  0.01070448     0.01900
C987        C  0.16943285  0.64857366  0.99647057     0.30000
C988        C  0.14999826  0.66758431  0.00831349    -0.19500
C989        C  0.13651245  0.66113082  0.03393590    -0.28900
C990        C  0.14415427  0.63654466  0.04881936     0.44000
C991        C  0.19048828  0.59978160  0.99621413     0.05200
O992        O  0.18047519  0.65395213  0.97020680    -0.57400
H993        H  0.14405693  0.68638425  0.99661881     0.18100
O994        O  0.13118203  0.62978289  0.07387870    -0.64200
H995        H  0.16846289  0.59825654  0.04819738     0.16600
C996        C  0.21686993  0.58962710  0.00557675     0.28800
C997        C  0.22676052  0.56324457  0.99619778    -0.25100
C998        C  0.21000002  0.54657160  0.97828536    -0.24300
C999        C  0.18451845  0.55768105  0.96753378     0.40300
C1000       C  0.17507141  0.58420213  0.97632957    -0.26800
O1001       O  0.23239986  0.60472814  0.02484254    -0.58700
H1002       H  0.24627727  0.55483777  0.00478576     0.15900
O1003       O  0.16762928  0.54180385  0.95010198    -0.60100
H1004       H  0.15456466  0.59166244  0.96927903     0.14400
H1005       H  0.14237251  0.63953952  0.08868219     0.46200
H1006       H  0.22697036  0.59704070  0.04358806     0.41600
H1007       H  0.17358666  0.54682145  0.93063435     0.45000
H1008       H  0.19900398  0.66304276  0.97384388     0.36500
C1009       C  0.95050371  0.34709192  0.85233092    -0.27700
C1010       C  0.93567210  0.37270949  0.85540342     0.01900
C1011       C  0.91831020  0.37661525  0.87930130     0.30000
C1012       C  0.91723940  0.35594060  0.90035076    -0.19500
C1013       C  0.93304989  0.33098633  0.89796360    -0.28900
C1014       C  0.94901258  0.32611293  0.87332006     0.44000
C1015       C  0.94126431  0.39693071  0.83622508     0.05200
O1016       O  0.90357379  0.40131853  0.88311493    -0.57400
H1017       H  0.90472403  0.35985887  0.91915030     0.18100
O1018       O  0.96506075  0.30210016  0.87066779    -0.64200
H1019       H  0.96409356  0.34385605  0.83417367     0.16600
C1020       C  0.96861424  0.40861836  0.83477425     0.28800
C1021       C  0.97266820  0.43515231  0.82238712    -0.25100
C1022       C  0.94980392  0.45032933  0.81109239    -0.24300
C1023       C  0.92281604  0.43790641  0.81071562     0.40300
C1024       C  0.91868053  0.41130369  0.82320720    -0.26800
O1025       O  0.99117429  0.39525382  0.84723454    -0.58700
H1026       H  0.99352703  0.44461942  0.82296686     0.15900
O1027       O  0.90004188  0.45246319  0.80016739    -0.60100
H1028       H  0.89751001  0.40263664  0.82425079     0.14400
H1029       H  0.95239573  0.28803430  0.86167106     0.46200
H1030       H  0.99127737  0.40192466  0.86712250     0.41600
H1031       H  0.89249330  0.46338427  0.81639639     0.45000
H1032       H  0.91683354  0.41417140  0.89303609     0.36500
C1033       C  0.80231240  0.40617135  0.03660712    -0.27700
C1034       C  0.83103536  0.39883202  0.03778025     0.01900
C1035       C  0.85081792  0.41853853  0.04791750     0.30000
C1036       C  0.84192145  0.44530831  0.05631771    -0.19500
C1037       C  0.81329733  0.45302443  0.05491460    -0.28900
C1038       C  0.79328634  0.43304337  0.04543643     0.44000
C1039       C  0.84118322  0.37153111  0.02666288     0.05200
O1040       O  0.87919125  0.41239454  0.04791186    -0.57400
H1041       H  0.85768495  0.46032543  0.06343896     0.18100
O1042       O  0.76525929  0.44009071  0.04303795    -0.64200
H1043       H  0.78700481  0.39121417  0.02847100     0.16600
C1044       C  0.85604882  0.35283297  0.04439424     0.28800
C1045       C  0.87290755  0.33168430  0.03258271    -0.25100
C1046       C  0.87461289  0.32846477  0.00312400    -0.24300
C1047       C  0.85725054  0.34518214  0.98553912     0.40300
C1048       C  0.84079344  0.36675620  0.99739581    -0.26800
O1049       O  0.85606061  0.35659174  0.07315815    -0.58700
H1050       H  0.88580936  0.31870364  0.04640367     0.15900
O1051       O  0.85866805  0.34281136  0.95666308    -0.60100
H1052       H  0.82950355  0.38114099  0.98356138     0.14400
H1053       H  0.75641327  0.43345083  0.06085470     0.46200
H1054       H  0.83857645  0.34721414  0.07990700     0.41600
H1055       H  0.84336780  0.32944982  0.95152094     0.45000
H1056       H  0.88405377  0.40853239  0.06795291     0.36500
C1057       C  0.14309225  0.33004978  0.95313373    -0.27700
C1058       C  0.11477429  0.33801675  0.94886540     0.01900
C1059       C  0.10812315  0.36664728  0.94455895     0.30000
C1060       C  0.12950326  0.38676932  0.94434890    -0.19500
C1061       C  0.15795668  0.37915914  0.94860520    -0.28900
C1062       C  0.16471709  0.35043493  0.95293754     0.44000
C1063       C  0.09160741  0.31719185  0.95084791     0.05200
O1064       O  0.08050125  0.37538725  0.94230833    -0.57400
H1065       H  0.12347515  0.40864022  0.94111948     0.18100
O1066       O  0.19213079  0.34208593  0.95733046    -0.64200
H1067       H  0.14835852  0.30806498  0.95683751     0.16600
C1068       C  0.07153927  0.31499501  0.92894409     0.28800
C1069       C  0.04554625  0.30212114  0.93413337    -0.25100
C1070       C  0.03952531  0.29058242  0.96077076    -0.24300
C1071       C  0.06081574  0.28980306  0.98160512     0.40300
C1072       C  0.08667311  0.30332146  0.97661297    -0.26800
O1073       O  0.07620925  0.32748038  0.90317488    -0.58700
H1074       H  0.02946917  0.30248118  0.91778482     0.15900
O1075       O  0.05543088  0.27887741  0.00792734    -0.60100
H1076       H  0.10193769  0.30489952  0.99363769     0.14400
H1077       H  0.19502887  0.34342879  0.97806563     0.46200
H1078       H  0.08803669  0.31382599  0.89253876     0.41600
H1079       H  0.06247195  0.25914141  0.00720207     0.45000
H1080       H  0.07818519  0.38176422  0.92244716     0.36500
C1081       C  0.14735392  0.49463182  0.31304440    -0.27700
C1082       C  0.16390931  0.47432963  0.32701532     0.01900
C1083       C  0.15901037  0.44544605  0.32167408     0.30000
C1084       C  0.13643062  0.43728582  0.30445383    -0.19500
C1085       C  0.11887917  0.45765210  0.29178320    -0.28900
C1086       C  0.12551149  0.48655151  0.29503033     0.44000
C1087       C  0.18420186  0.48365671  0.34896003     0.05200
O1088       O  0.17561735  0.42501402  0.33386241    -0.57400
H1089       H  0.13222505  0.41494784  0.30169977     0.18100
O1090       O  0.11020819  0.50722145  0.28156399    -0.64200
H1091       H  0.15051559  0.51695438  0.31694154     0.16600
C1092       C  0.20235891  0.50674635  0.34422416     0.28800
C1093       C  0.21827130  0.51766949  0.36654939    -0.25100
C1094       C  0.21663434  0.50581333  0.39375571    -0.24300
C1095       C  0.19972944  0.48175065  0.39813052     0.40300
C1096       C  0.18344892  0.47106433  0.37590076    -0.26800
O1097       O  0.20507043  0.51836980  0.31772925    -0.58700
H1098       H  0.23189304  0.53563657  0.36251000     0.15900
O1099       O  0.19828860  0.46899555  0.42414769    -0.60100
H1100       H  0.16933467  0.45354340  0.38010746     0.14400
H1101       H  0.11880756  0.50888047  0.26249613     0.46200
H1102       H  0.19753512  0.53789478  0.31926143     0.41600
H1103       H  0.18202893  0.47804057  0.43382080     0.45000
H1104       H  0.19127330  0.42186566  0.32027556     0.36500
C1105       C  0.17537063  0.41555127  0.08294655    -0.27700
C1106       C  0.17650572  0.43739853  0.10289241     0.01900
C1107       C  0.19311123  0.46143378  0.09750223     0.30000
C1108       C  0.20589951  0.46467512  0.07097936    -0.19500
C1109       C  0.20157727  0.44435381  0.04976684    -0.28900
C1110       C  0.18760408  0.41894638  0.05641675     0.44000
C1111       C  0.15539531  0.43725044  0.12567792     0.05200
O1112       O  0.19499476  0.48276947  0.11704660    -0.57400
H1113       H  0.21694849  0.48416192  0.06622263     0.18100
O1114       O  0.18388764  0.39825579  0.03642507    -0.64200
H1115       H  0.16281733  0.39684119  0.08710440     0.16600
C1116       C  0.12662824  0.43823968  0.11836911     0.28800
C1117       C  0.10610900  0.43522479  0.13913933    -0.25100
C1118       C  0.11366462  0.43121134  0.16757165    -0.24300
C1119       C  0.14259943  0.43194408  0.17517204     0.40300
C1120       C  0.16331749  0.43476159  0.15411902    -0.26800
O1121       O  0.11841516  0.44237902  0.09081115    -0.58700
H1122       H  0.08412539  0.43567733  0.13270547     0.15900
O1123       O  0.15091514  0.42938008  0.20284727    -0.60100
H1124       H  0.18548841  0.43439016  0.15988078     0.14400
H1125       H  0.20018829  0.38528682  0.03886367     0.46200
H1126       H  0.11263873  0.42347622  0.08382210     0.41600
H1127       H  0.15188539  0.44902541  0.21011136     0.45000
H1128       H  0.17947026  0.49604639  0.11225270     0.36500
C1129       C  0.02929103  0.61829657  0.15276982    -0.27700
C1130       C  0.05388196  0.61030131  0.16729489     0.01900
C1131       C  0.07900735  0.62551597  0.16284804     0.30000
C1132       C  0.07995255  0.64681017  0.14237857    -0.19500
C1133       C  0.05601967  0.65321580  0.12590878    -0.28900
C1134       C  0.03018705  0.63953400  0.13211501     0.44000
C1135       C  0.05436247  0.58323729  0.18292333     0.05200
O1136       O  0.10322111  0.61851067  0.17720799    -0.57400
H1137       H  0.09994680  0.65722788  0.13838611     0.18100
O1138       O  0.00587376  0.64622531  0.11772560    -0.64200
H1139       H  0.00976685  0.60679847  0.15611320     0.16600
C1140       C  0.03672115  0.57812125  0.20631859     0.28800
C1141       C  0.03535964  0.55093459  0.21814727    -0.25100
C1142       C  0.05116301  0.52853296  0.20656414    -0.24300
C1143       C  0.06989824  0.53425709  0.18398940     0.40300
C1144       C  0.07129021  0.56133411  0.17241760    -0.26800
O1145       O  0.02015627  0.59929236  0.21718177    -0.58700
H1146       H  0.02103701  0.54714799  0.23560137     0.15900
O1147       O  0.08622163  0.51333131  0.17225505    -0.60100
H1148       H  0.08489226  0.56498761  0.15433178     0.14400
H1149       H  0.00383930  0.63138576  0.10304896     0.46200
H1150       H  0.03228352  0.60904738  0.23122771     0.41600
H1151       H  0.10362694  0.51271059  0.18394346     0.45000
H1152       H  0.10204654  0.62897740  0.19533966     0.36500
C1153       C  0.01629903  0.31180860  0.16369981    -0.27700
C1154       C  0.99450583  0.31746813  0.14439906     0.01900
C1155       C  0.98009814  0.34342895  0.14577997     0.30000
C1156       C  0.98881060  0.36410800  0.16493723    -0.19500
C1157       C  0.01224542  0.35953916  0.18268339    -0.28900
C1158       C  0.02506044  0.33252898  0.18297645     0.44000
C1159       C  0.99095903  0.29962253  0.11908066     0.05200
O1160       O  0.95896016  0.34965669  0.12687043    -0.57400
H1161       H  0.97833291  0.38447761  0.16442508     0.18100
O1162       O  0.04717049  0.32662501  0.20080113    -0.64200
H1163       H  0.02760305  0.29190069  0.16267582     0.16600
C1164       C  0.01143040  0.30125403  0.09759456     0.28800
C1165       C  0.00506998  0.29160795  0.07049961    -0.25100
C1166       C  0.97867178  0.27960075  0.06454648    -0.24300
C1167       C  0.95911444  0.27545499  0.08659963     0.40300
C1168       C  0.96522590  0.28579115  0.11375976    -0.26800
O1169       O  0.03652341  0.31506118  0.10209860    -0.58700
H1170       H  0.02029005  0.29486697  0.05368260     0.15900
O1171       O  0.93328788  0.26336681  0.08135148    -0.60100
H1172       H  0.94927683  0.28459256  0.13015943     0.14400
H1173       H  0.03824363  0.32031666  0.21870171     0.46200
H1174       H  0.05006403  0.30008917  0.10780338     0.41600
H1175       H  0.92055898  0.27934073  0.07654394     0.45000
H1176       H  0.96864979  0.35810227  0.11028989     0.36500
C1177       C  0.92016076  0.50499611  0.21908489    -0.27700
C1178       C  0.89783168  0.48597919  0.22309775     0.01900
C1179       C  0.90313686  0.45954024  0.23577813     0.30000
C1180       C  0.93099961  0.45159826  0.24214066    -0.19500
C1181       C  0.95342404  0.46974335  0.23537578    -0.28900
C1182       C  0.94780404  0.49697114  0.22491430     0.44000
C1183       C  0.87182110  0.49154952  0.20696315     0.05200
O1184       O  0.88161946  0.44055620  0.23974791    -0.57400
H1185       H  0.93524138  0.43056958  0.25019643     0.18100
O1186       O  0.96945403  0.51503216  0.21812743    -0.64200
H1187       H  0.91653711  0.52514258  0.20875841     0.16600
C1188       C  0.85742840  0.51737849  0.21006767     0.28800
C1189       C  0.84150932  0.52812634  0.18753291    -0.25100
C1190       C  0.84016916  0.51344145  0.16172834    -0.24300
C1191       C  0.85161201  0.48588056  0.16014733     0.40300
C1192       C  0.86727965  0.47517892  0.18271397    -0.26800
O1193       O  0.86044323  0.53299973  0.23433858    -0.58700
H1194       H  0.83197740  0.54885051  0.18963474     0.15900
O1195       O  0.84955905  0.47003170  0.13593200    -0.60100
H1196       H  0.87835422  0.45528709  0.18001272     0.14400
H1197       H  0.97123668  0.52783508  0.23462593     0.46200
H1198       H  0.87332985  0.54875300  0.22933114     0.41600
H1199       H  0.83114754  0.46012868  0.13740882     0.45000
H1200       H  0.87326179  0.44558823  0.25831084     0.36500
C1201       C  0.51294007  0.12382409  0.67768426    -0.27700
C1202       C  0.49027830  0.14121292  0.68588852     0.01900
C1203       C  0.47949241  0.13912311  0.71357550     0.30000
C1204       C  0.49276803  0.12141189  0.73319084    -0.19500
C1205       C  0.51624025  0.10518497  0.72529731    -0.28900
C1206       C  0.52575246  0.10562536  0.69716723     0.44000
C1207       C  0.47920911  0.16249508  0.66583059     0.05200
O1208       O  0.45569822  0.15387757  0.72132651    -0.57400
H1209       H  0.48491265  0.12055182  0.75471430     0.18100
O1210       O  0.54879427  0.08996056  0.68909543    -0.64200
H1211       H  0.52137923  0.12513987  0.65641808     0.16600
C1212       C  0.47816322  0.19133208  0.67326372     0.28800
C1213       C  0.46846295  0.21126572  0.65376883    -0.25100
C1214       C  0.46065186  0.20308750  0.62634828    -0.24300
C1215       C  0.46213816  0.17430253  0.61872321     0.40300
C1216       C  0.47115450  0.15423572  0.63850903    -0.26800
O1217       O  0.48741747  0.20040751  0.69921658    -0.58700
H1218       H  0.46793164  0.23334852  0.65984659     0.15900
O1219       O  0.45401275  0.16544451  0.59231845    -0.60100
H1220       H  0.47197081  0.13215262  0.63247452     0.14400
H1221       H  0.54093395  0.07176853  0.68227947     0.46200
H1222       H  0.50819679  0.20241738  0.69726563     0.41600
H1223       H  0.47183498  0.16344736  0.58144599     0.45000
H1224       H  0.46174900  0.16692899  0.73658653     0.36500
C1225       C  0.53848707  0.69862988  0.85155704    -0.27700
C1226       C  0.53193035  0.67022416  0.85657965     0.01900
C1227       C  0.53447375  0.65908868  0.88398713     0.30000
C1228       C  0.54294039  0.67652107  0.90624949    -0.19500
C1229       C  0.54888246  0.70525077  0.90158399    -0.28900
C1230       C  0.54711196  0.71615335  0.87379849     0.44000
C1231       C  0.51843120  0.65333924  0.83428269     0.05200
O1232       O  0.52805520  0.63130738  0.88927596    -0.57400
H1233       H  0.54446675  0.66758092  0.92730095     0.18100
O1234       O  0.55202324  0.74421899  0.86841504    -0.64200
H1235       H  0.53594415  0.70744316  0.83054505     0.16600
C1236       C  0.48886261  0.65321443  0.83217670     0.28800
C1237       C  0.47558313  0.63524993  0.81300445    -0.25100
C1238       C  0.49144862  0.61713499  0.79556459    -0.24300
C1239       C  0.52127664  0.61802062  0.79702727     0.40300
C1240       C  0.53458526  0.63611578  0.81639555    -0.26800
O1241       O  0.47271979  0.66980450  0.84966583    -0.58700
H1242       H  0.45268608  0.63505001  0.81234974     0.15900
O1243       O  0.53756524  0.60173388  0.77939824    -0.60100
H1244       H  0.55744856  0.63634947  0.81782412     0.14400
H1245       H  0.57185476  0.74511968  0.86167152     0.46200
H1246       H  0.47151661  0.68839317  0.84002622     0.41600
H1247       H  0.54268741  0.58481017  0.79068456     0.45000
H1248       H  0.50765807  0.63120965  0.89413745     0.36500
C1249       C  0.59508098  0.87243217  0.87734953    -0.27700
C1250       C  0.56926277  0.88429948  0.86892283     0.01900
C1251       C  0.54381212  0.87118737  0.87688100     0.30000
C1252       C  0.54436031  0.84761074  0.89471466    -0.19500
C1253       C  0.57014645  0.83670573  0.90467773    -0.28900
C1254       C  0.59570164  0.84860262  0.89487187     0.44000
C1255       C  0.56880692  0.91243623  0.85548099     0.05200
O1256       O  0.51827349  0.88225055  0.86865789    -0.57400
H1257       H  0.52451604  0.83855437  0.90170398     0.18100
O1258       O  0.62133339  0.83873740  0.90421449    -0.64200
H1259       H  0.61478040  0.88247042  0.87136648     0.16600
C1260       C  0.57720565  0.93628188  0.87105757     0.28800
C1261       C  0.57339006  0.96330243  0.85982682    -0.25100
C1262       C  0.56134365  0.96713636  0.83288828    -0.24300
C1263       C  0.55442945  0.94301315  0.81664141     0.40300
C1264       C  0.55786328  0.91592114  0.82815820    -0.26800
O1265       O  0.58735109  0.93344649  0.89810759    -0.58700
H1266       H  0.57906533  0.98132519  0.87276298     0.15900
O1267       O  0.54357969  0.94557744  0.78986160    -0.60100
H1268       H  0.55150769  0.89760613  0.81596462     0.14400
H1269       H  0.62766277  0.82517878  0.88952643     0.46200
H1270       H  0.60822370  0.93418700  0.89626028     0.41600
H1271       H  0.56029789  0.94600658  0.77720337     0.45000
H1272       H  0.51304851  0.89586948  0.88372271     0.36500
C1273       C  0.63280800  0.66443553  0.04347044    -0.27700
C1274       C  0.66092706  0.66609536  0.03431500     0.01900
C1275       C  0.66840275  0.68540665  0.01300172     0.30000
C1276       C  0.64757512  0.70169823  0.00002847    -0.19500
C1277       C  0.61917350  0.69932696  0.00831927    -0.28900
C1278       C  0.61191406  0.68096205  0.03065706     0.44000
C1279       C  0.68160207  0.64519257  0.04435080     0.05200
O1280       O  0.69592201  0.68785040  0.00416305    -0.57400
H1281       H  0.65368614  0.71619858  0.98336469     0.18100
O1282       O  0.58442365  0.67825907  0.03946572    -0.64200
H1283       H  0.62684077  0.64938308  0.05968182     0.16600
C1284       C  0.68862510  0.64258076  0.07309755     0.28800
C1285       C  0.70816409  0.62203817  0.08160732    -0.25100
C1286       C  0.72045099  0.60363139  0.06170524    -0.24300
C1287       C  0.71280918  0.60617278  0.03289947     0.40300
C1288       C  0.69372454  0.62692440  0.02452425    -0.26800
O1289       O  0.67720063  0.66055893  0.09278480    -0.58700
H1290       H  0.71361733  0.62052384  0.10381421     0.15900
O1291       O  0.72394907  0.58871492  0.01258121    -0.60100
H1292       H  0.68802633  0.62852735  0.00236504     0.14400
H1293       H  0.57639272  0.66285304  0.02773520     0.46200
H1294       H  0.66198258  0.64958192  0.10212940     0.41600
H1295       H  0.71012500  0.57308312  0.01058470     0.45000
H1296       H  0.70456099  0.70197244  0.01702397     0.36500
C1297       C  0.84361003  0.18459495  0.02416797    -0.27700
C1298       C  0.85496247  0.15874901  0.03298766     0.01900
C1299       C  0.88407244  0.15359499  0.03007326     0.30000
C1300       C  0.90138637  0.17403870  0.01771082    -0.19500
C1301       C  0.88997558  0.19978736  0.00810220    -0.28900
C1302       C  0.86080714  0.20512014  0.01193360     0.44000
C1303       C  0.83569813  0.13654719  0.04291625     0.05200
O1304       O  0.89563281  0.12840621  0.03866660    -0.57400
H1305       H  0.92369361  0.16946054  0.01522123     0.18100
O1306       O  0.84856624  0.22984110  0.00293854    -0.64200
H1307       H  0.82110640  0.18854132  0.02596736     0.16600
C1308       C  0.81781194  0.14106106  0.06622175     0.28800
C1309       C  0.79805774  0.12045037  0.07373183    -0.25100
C1310       C  0.79585437  0.09534833  0.05807175    -0.24300
C1311       C  0.81380042  0.09098103  0.03465246     0.40300
C1312       C  0.83365559  0.11145804  0.02737567    -0.26800
O1313       O  0.82001509  0.16523856  0.08209090    -0.58700
H1314       H  0.78455399  0.12405663  0.09188900     0.15900
O1315       O  0.81162605  0.06715584  0.01825420    -0.60100
H1316       H  0.84694241  0.10813608  0.00899584     0.14400
H1317       H  0.84942827  0.24271309  0.01947143     0.46200
H1318       H  0.80378791  0.17720063  0.07627938     0.41600
H1319       H  0.79719874  0.07177550  0.00372760     0.45000
H1320       H  0.90034595  0.13114259  0.05892233     0.36500
C1321       C  0.67292262  0.05046388  0.87204098    -0.27700
C1322       C  0.67168708  0.06337632  0.89879882     0.01900
C1323       C  0.64885810  0.08152023  0.90504885     0.30000
C1324       C  0.62708639  0.08530244  0.88541094    -0.19500
C1325       C  0.62759747  0.07131787  0.85927635    -0.28900
C1326       C  0.65112406  0.05442404  0.85226719     0.44000
C1327       C  0.69121080  0.05447632  0.92177768     0.05200
O1328       O  0.64668799  0.09427278  0.93102148    -0.57400
H1329       H  0.60916212  0.09842599  0.89106776     0.18100
O1330       O  0.65173749  0.03961785  0.82733490    -0.64200
H1331       H  0.69014678  0.03621046  0.86701913     0.16600
C1332       C  0.69154426  0.02603224  0.93065765     0.28800
C1333       C  0.70351008  0.01881243  0.95671557    -0.25100
C1334       C  0.71555866  0.03952641  0.97414208    -0.24300
C1335       C  0.71774227  0.06746708  0.96415225     0.40300
C1336       C  0.70554553  0.07481306  0.93807828    -0.26800
O1337       O  0.67811918  0.00549523  0.91519511    -0.58700
H1338       H  0.70166863  0.99723402  0.96421890     0.15900
O1339       O  0.72963133  0.08812718  0.98066555    -0.60100
H1340       H  0.70560858  0.09674770  0.93146925     0.14400
H1341       H  0.66203064  0.05194833  0.81386716     0.46200
H1342       H  0.65831872  0.00542263  0.92210351     0.41600
H1343       H  0.71420929  0.09477830  0.99320915     0.45000
H1344       H  0.63690439  0.08032616  0.94324840     0.36500
C1345       C  0.71560080  0.89525497  0.02917234    -0.27700
C1346       C  0.68899741  0.88484841  0.03684394     0.01900
C1347       C  0.67083726  0.90167145  0.05334196     0.30000
C1348       C  0.67845357  0.92939040  0.06000737    -0.19500
C1349       C  0.70406625  0.94081563  0.05021885    -0.28900
C1350       C  0.72337114  0.92292747  0.03597583     0.44000
C1351       C  0.67777847  0.85934956  0.02296612     0.05200
O1352       O  0.64470686  0.89189560  0.06128669    -0.57400
H1353       H  0.66350263  0.94239300  0.07150870     0.18100
O1354       O  0.74921537  0.93262627  0.02713485    -0.64200
H1355       H  0.72972541  0.88239289  0.01651454     0.16600
C1356       C  0.67168380  0.86037319  0.99383406     0.28800
C1357       C  0.65364485  0.84035275  0.98197326    -0.25100
C1358       C  0.64219169  0.81883837  0.99869474    -0.24300
C1359       C  0.65062457  0.81593696  0.02705109     0.40300
C1360       C  0.66816297  0.83644126  0.03920985    -0.26800
O1361       O  0.68049428  0.88272893  0.97758917    -0.58700
H1362       H  0.64706857  0.84272813  0.96013204     0.15900
O1363       O  0.63954004  0.79493293  0.04367846    -0.60100
H1364       H  0.67271114  0.83553969  0.06165651     0.14400
H1365       H  0.76201950  0.92975636  0.04350890     0.46200
H1366       H  0.69815066  0.87615799  0.96838041     0.41600
H1367       H  0.65217249  0.77843925  0.04078968     0.45000
H1368       H  0.63184665  0.89702004  0.04551315     0.36500
C1369       C  0.53570669  0.80954656  0.10933231    -0.27700
C1370       C  0.50974276  0.79824130  0.11803089     0.01900
C1371       C  0.49733646  0.77642568  0.10216963     0.30000
C1372       C  0.50969130  0.76786211  0.07667849    -0.19500
C1373       C  0.53428164  0.78114295  0.06640804    -0.28900
C1374       C  0.54793226  0.80133927  0.08365409     0.44000
C1375       C  0.49337150  0.81366130  0.13968191     0.05200
O1376       O  0.47207042  0.76482965  0.11036813    -0.57400
H1377       H  0.49885543  0.75213546  0.06404915     0.18100
O1378       O  0.57256252  0.81407010  0.07514216    -0.64200
H1379       H  0.54540438  0.82646810  0.12134791     0.16600
C1380       C  0.50320346  0.81659325  0.16762649     0.28800
C1381       C  0.49085802  0.83676641  0.18556565    -0.25100
C1382       C  0.46931253  0.85458659  0.17549126    -0.24300
C1383       C  0.45814532  0.85006872  0.14825537     0.40300
C1384       C  0.47011389  0.82967128  0.13063114    -0.26800
O1385       O  0.52527743  0.80038907  0.17722528    -0.58700
H1386       H  0.49936058  0.83973321  0.20664029     0.15900
O1387       O  0.43637120  0.86640744  0.13817837    -0.60100
H1388       H  0.46239461  0.82764331  0.10913460     0.14400
H1389       H  0.56683216  0.83282649  0.06767412     0.46200
H1390       H  0.54225265  0.81254694  0.17546085     0.41600
H1391       H  0.41888104  0.85668359  0.14441607     0.45000
H1392       H  0.47722297  0.74905367  0.12320023     0.36500
C1393       C  0.55623361  0.81620632  0.36195113    -0.27700
C1394       C  0.52839727  0.82540495  0.35814780     0.01900
C1395       C  0.50728673  0.81724622  0.37735819     0.30000
C1396       C  0.51393023  0.79935138  0.39971447    -0.19500
C1397       C  0.54167622  0.78947157  0.40351800    -0.28900
C1398       C  0.56301131  0.79819449  0.38442096     0.44000
C1399       C  0.52074849  0.84316388  0.33395310     0.05200
O1400       O  0.47997322  0.82658427  0.37429273    -0.57400
H1401       H  0.49718354  0.79321576  0.41408487     0.18100
O1402       O  0.59049350  0.78943611  0.38749386    -0.64200
H1403       H  0.57257364  0.82261565  0.34722688     0.16600
C1404       C  0.52929034  0.87155694  0.33258513     0.28800
C1405       C  0.51622138  0.88976469  0.31331885    -0.25100
C1406       C  0.49467915  0.87974454  0.29550781    -0.24300
C1407       C  0.48822404  0.85068625  0.29515071     0.40300
C1408       C  0.50120628  0.83263097  0.31440746    -0.26800
O1409       O  0.54842350  0.88217260  0.35160831    -0.58700
H1410       H  0.52174248  0.91199022  0.31348990     0.15900
O1411       O  0.46843511  0.83991630  0.27688300    -0.60100
H1412       H  0.49490688  0.81061483  0.31514688     0.14400
H1413       H  0.59218248  0.77231301  0.37550982     0.46200
H1414       H  0.56699124  0.88091161  0.34195235     0.41600
H1415       H  0.47911258  0.83497767  0.25952188     0.45000
H1416       H  0.47942741  0.84524021  0.38384345     0.36500
C1417       C  0.61409777  0.01679639  0.16305737    -0.27700
C1418       C  0.62047196  0.99230280  0.17845924     0.01900
C1419       C  0.64773319  0.98052008  0.17681501     0.30000
C1420       C  0.66800900  0.99281580  0.15901525    -0.19500
C1421       C  0.66100540  0.01640630  0.14237098    -0.28900
C1422       C  0.63403440  0.02875590  0.14498298     0.44000
C1423       C  0.59713394  0.97800527  0.19327752     0.05200
O1424       O  0.65430113  0.95641102  0.19152922    -0.57400
H1425       H  0.68862534  0.98300900  0.15700975     0.18100
O1426       O  0.62657478  0.05186442  0.12907557    -0.64200
H1427       H  0.59306750  0.02588312  0.16401942     0.16600
C1428       C  0.58273691  0.99176070  0.21527969     0.28800
C1429       C  0.55603119  0.98228863  0.22353550    -0.25100
C1430       C  0.54317413  0.95920255  0.20985889    -0.24300
C1431       C  0.55882768  0.94393300  0.18952799     0.40300
C1432       C  0.58570775  0.95335379  0.18149067    -0.26800
O1433       O  0.59371943  0.01572610  0.22733558    -0.58700
H1434       H  0.54473845  0.99416369  0.23954301     0.15900
O1435       O  0.54776497  0.92039839  0.17670475    -0.60100
H1436       H  0.59672282  0.94259689  0.16451456     0.14400
H1437       H  0.63208687  0.06847254  0.14061362     0.46200
H1438       H  0.60326063  0.00917253  0.24483456     0.41600
H1439       H  0.54030287  0.92711245  0.15826906     0.45000
H1440       H  0.66136628  0.96308126  0.21011374     0.36500
C1441       C  0.17593291  0.87084705  0.99005696    -0.27700
C1442       C  0.18004687  0.84195712  0.98552930     0.01900
C1443       C  0.20364130  0.83264022  0.97006198     0.30000
C1444       C  0.22279977  0.85240022  0.95913447    -0.19500
C1445       C  0.21887434  0.88153705  0.96380079    -0.28900
C1446       C  0.19513953  0.89058380  0.97961832     0.44000
C1447       C  0.15919070  0.82200533  0.99708030     0.05200
O1448       O  0.20758435  0.80439762  0.96478314    -0.57400
H1449       H  0.24078663  0.84485274  0.94712257     0.18100
O1450       O  0.19023589  0.91867067  0.98491495    -0.64200
H1451       H  0.15780021  0.87812501  0.00204427     0.16600
C1452       C  0.16609042  0.80421638  0.01985925     0.28800
C1453       C  0.14536736  0.78677782  0.03165134    -0.25100
C1454       C  0.11755455  0.78691053  0.02106191    -0.24300
C1455       C  0.11070142  0.80508868  0.99839697     0.40300
C1456       C  0.13148977  0.82243096  0.98660703    -0.26800
O1457       O  0.19288600  0.80404550  0.03098154    -0.58700
H1458       H  0.15112715  0.77305483  0.04908747     0.15900
O1459       O  0.08371279  0.80645715  0.98786589    -0.60100
H1460       H  0.12593245  0.83651231  0.96938381     0.14400
H1461       H  0.19924583  0.92239950  0.00349465     0.46200
H1462       H  0.19314381  0.81968878  0.04494123     0.41600
H1463       H  0.07393403  0.82078910  0.99965161     0.45000
H1464       H  0.22184989  0.79807899  0.97880962     0.36500
C1465       C  0.38430569  0.83128498  0.92236504    -0.27700
C1466       C  0.38584698  0.81712194  0.94845593     0.01900
C1467       C  0.36472036  0.82205206  0.96888378     0.30000
C1468       C  0.34477598  0.84341170  0.96458430    -0.19500
C1469       C  0.34493923  0.85940736  0.93962092    -0.28900
C1470       C  0.36379733  0.85218073  0.91774523     0.44000
C1471       C  0.41259374  0.80296537  0.95662620     0.05200
O1472       O  0.36502485  0.80787456  0.99419644    -0.57400
H1473       H  0.33012588  0.84856238  0.98144450     0.18100
O1474       O  0.36470180  0.86773721  0.89327506    -0.64200
H1475       H  0.40055479  0.82806406  0.90654750     0.16600
C1476       C  0.42545526  0.78197324  0.93984335     0.28800
C1477       C  0.45290605  0.77254798  0.94635513    -0.25100
C1478       C  0.46789476  0.78434664  0.96915347    -0.24300
C1479       C  0.45422858  0.80418127  0.98676517     0.40300
C1480       C  0.42704594  0.81339609  0.98030833    -0.26800
O1481       O  0.41138018  0.77066148  0.91714313    -0.58700
H1482       H  0.46290218  0.75699321  0.93283006     0.15900
O1483       O  0.46756750  0.81549324  0.00992648    -0.60100
H1484       H  0.41767779  0.82979688  0.99328901     0.14400
H1485       H  0.35183020  0.85784125  0.88001744     0.46200
H1486       H  0.42067642  0.77876084  0.90017792     0.41600
H1487       H  0.46346623  0.80226049  0.02567857     0.45000
H1488       H  0.35411564  0.79032501  0.99073692     0.36500
C1489       C  0.35555806  0.00656262  0.84249860    -0.27700
C1490       C  0.38212981  0.99548037  0.83550586     0.01900
C1491       C  0.38968750  0.96818237  0.84462589     0.30000
C1492       C  0.37151827  0.95301418  0.86216234    -0.19500
C1493       C  0.34549353  0.96451122  0.87025032    -0.28900
C1494       C  0.33705591  0.99106140  0.85963873     0.44000
C1495       C  0.40438686  0.01394031  0.82429001     0.05200
O1496       O  0.41604071  0.95746049  0.83890667    -0.57400
H1497       H  0.37827767  0.93273511  0.87045813     0.18100
O1498       O  0.31180565  0.00290469  0.86765769    -0.64200
H1499       H  0.34988696  0.02780009  0.83602252     0.16600
C1500       C  0.41610255  0.00912167  0.79741887     0.28800
C1501       C  0.44311650  0.01947387  0.79117783    -0.25100
C1502       C  0.45870514  0.03388369  0.81193695    -0.24300
C1503       C  0.44563468  0.04118771  0.83767676     0.40300
C1504       C  0.41845290  0.03143761  0.84356333    -0.26800
O1505       O  0.40197747  0.99296785  0.77790681    -0.58700
H1506       H  0.45273234  0.01415350  0.77107138     0.15900
O1507       O  0.45970400  0.05690823  0.85760679    -0.60100
H1508       H  0.40945432  0.03532239  0.86429104     0.14400
H1509       H  0.31586356  0.01295343  0.88561949     0.46200
H1510       H  0.41113183  0.97411402  0.77859036     0.41600
H1511       H  0.46613478  0.04314775  0.87209181     0.45000
H1512       H  0.41318127  0.94396833  0.82312160     0.36500
C1513       C  0.34233895  0.90098602  0.13951452    -0.27700
C1514       C  0.33638533  0.92551526  0.12397338     0.01900
C1515       C  0.34835376  0.95139820  0.13242407     0.30000
C1516       C  0.36746966  0.95214874  0.15493861    -0.19500
C1517       C  0.37522442  0.92723989  0.16918174    -0.28900
C1518       C  0.36150445  0.90167181  0.16205815     0.44000
C1519       C  0.32221211  0.92335388  0.09621295     0.05200
O1520       O  0.34314132  0.97572838  0.11747933    -0.57400
H1521       H  0.37745212  0.97208073  0.16018404     0.18100
O1522       O  0.36845573  0.87676374  0.17519467    -0.64200
H1523       H  0.33336476  0.88092701  0.13306413     0.16600
C1524       C  0.33535717  0.90805822  0.07430141     0.28800
C1525       C  0.32608516  0.91133393  0.04650353    -0.25100
C1526       C  0.30359942  0.92953907  0.04015403    -0.24300
C1527       C  0.28875978  0.94286882  0.06222117     0.40300
C1528       C  0.29834120  0.93997898  0.09013664    -0.26800
O1529       O  0.35863646  0.89152526  0.07954007    -0.58700
H1530       H  0.33748344  0.90079551  0.02962882     0.15900
O1531       O  0.26680043  0.96092354  0.05645537    -0.60100
H1532       H  0.28813066  0.95189823  0.10682763     0.14400
H1533       H  0.35470289  0.87484672  0.19090338     0.46200
H1534       H  0.37507898  0.90441136  0.07780458     0.41600
H1535       H  0.24951423  0.94919272  0.05810283     0.45000
H1536       H  0.35764774  0.97612814  0.10233459     0.36500
C1537       C  0.49878627  0.33464396  0.22104254    -0.27700
C1538       C  0.48821602  0.34182810  0.19435276     0.01900
C1539       C  0.48771552  0.37043180  0.18605911     0.30000
C1540       C  0.49804407  0.39135210  0.20427842    -0.19500
C1541       C  0.50935260  0.38418951  0.23083166    -0.28900
C1542       C  0.50952931  0.35537633  0.23910823     0.44000
C1543       C  0.47931238  0.31927442  0.17459880     0.05200
O1544       O  0.47791420  0.37808445  0.15983590    -0.57400
H1545       H  0.49774636  0.41316402  0.19729734     0.18100
O1546       O  0.52052605  0.34700119  0.26462185    -0.64200
H1547       H  0.49918310  0.31273237  0.22773349     0.16600
C1548       C  0.49844439  0.29804425  0.16624519     0.28800
C1549       C  0.49090302  0.27899955  0.14495630    -0.25100
C1550       C  0.46413949  0.28033416  0.13214461    -0.24300
C1551       C  0.44437490  0.30045662  0.14177517     0.40300
C1552       C  0.45213661  0.31989073  0.16270170    -0.26800
O1553       O  0.52522879  0.29698328  0.17736294    -0.58700
H1554       H  0.50630026  0.26350802  0.13800183     0.15900
O1555       O  0.41821109  0.30269655  0.12946410    -0.60100
H1556       H  0.43713891  0.33596211  0.16917407     0.14400
H1557       H  0.54056831  0.34221776  0.26069487     0.46200
H1558       H  0.52488422  0.28118553  0.19116344     0.41600
H1559       H  0.40536706  0.29176361  0.14191363     0.45000
H1560       H  0.49412782  0.37522168  0.14684453     0.36500
C1561       C  0.43821658  0.13506199  0.18054967    -0.27700
C1562       C  0.43210662  0.10712062  0.17268572     0.01900
C1563       C  0.42564032  0.10096037  0.14436559     0.30000
C1564       C  0.42663982  0.12225223  0.12401730    -0.19500
C1565       C  0.43403325  0.15004396  0.13137721    -0.28900
C1566       C  0.43876975  0.15665419  0.16010271     0.44000
C1567       C  0.43752662  0.08337604  0.19215517     0.05200
O1568       O  0.41968825  0.07377638  0.13617068    -0.57400
H1569       H  0.42234359  0.11676711  0.10217684     0.18100
O1570       O  0.44596243  0.18356025  0.16809770    -0.64200
H1571       H  0.44369032  0.13987450  0.20227270     0.16600
C1572       C  0.46462205  0.07118188  0.19233537     0.28800
C1573       C  0.46860038  0.04428835  0.20374012    -0.25100
C1574       C  0.44582494  0.02922700  0.21520368    -0.24300
C1575       C  0.41908507  0.04219175  0.21704805     0.40300
C1576       C  0.41499462  0.06919366  0.20531019    -0.26800
O1577       O  0.48689633  0.08456453  0.17944194    -0.58700
H1578       H  0.48927714  0.03448692  0.20221532     0.15900
O1579       O  0.39650553  0.02787304  0.22826145    -0.60100
H1580       H  0.39394759  0.07823986  0.20482124     0.14400
H1581       H  0.42786882  0.19268708  0.17350254     0.46200
H1582       H  0.48723031  0.07715455  0.15981782     0.41600
H1583       H  0.38771348  0.01788206  0.21205198     0.45000
H1584       H  0.43811584  0.06554733  0.13044752     0.36500
C1585       C  0.63364013  0.14289718  0.04462832    -0.27700
C1586       C  0.62822189  0.15720748  0.07005517     0.01900
C1587       C  0.64516585  0.15160908  0.09381797     0.30000
C1588       C  0.66506530  0.12984600  0.09285361    -0.19500
C1589       C  0.66841469  0.11332043  0.06831176    -0.28900
C1590       C  0.65377439  0.12122628  0.04352222     0.44000
C1591       C  0.60166420  0.17336722  0.07297348     0.05200
O1592       O  0.64086372  0.16579148  0.11875188    -0.57400
H1593       H  0.67655712  0.12480104  0.11203182     0.18100
O1594       O  0.65738624  0.10666212  0.01870340    -0.64200
H1595       H  0.62075392  0.14699658  0.02612238     0.16600
C1596       C  0.59455674  0.19530326  0.05421192     0.28800
C1597       C  0.56707888  0.20637794  0.05425440    -0.25100
C1598       C  0.54626049  0.19522538  0.07234744    -0.24300
C1599       C  0.55399084  0.17443058  0.09227248     0.40300
C1600       C  0.58154491  0.16385683  0.09257830    -0.26800
O1601       O  0.61419443  0.20564220  0.03552428    -0.58700
H1602       H  0.56166282  0.22247386  0.03886048     0.15900
O1603       O  0.53464080  0.16382346  0.11111618    -0.60100
H1604       H  0.58670230  0.14686230  0.10708205     0.14400
H1605       H  0.66929312  0.11907502  0.00671640     0.46200
H1606       H  0.60853790  0.19820911  0.01674128     0.41600
H1607       H  0.52889483  0.14522931  0.10330785     0.45000
H1608       H  0.65173333  0.18360579  0.11684766     0.36500
C1609       C  0.35846878  0.06520041  0.97813960    -0.27700
C1610       C  0.34007803  0.08374819  0.99222027     0.01900
C1611       C  0.31169388  0.07566850  0.99620272     0.30000
C1612       C  0.30247890  0.04896342  0.98698385    -0.19500
C1613       C  0.32120550  0.03000531  0.97366416    -0.28900
C1614       C  0.34936609  0.03868980  0.96891028     0.44000
C1615       C  0.35168790  0.11079299  0.00326561     0.05200
O1616       O  0.29268627  0.09408280  0.00814802    -0.57400
H1617       H  0.28064070  0.04303377  0.99049514     0.18100
O1618       O  0.36850266  0.02127249  0.95579927    -0.64200
H1619       H  0.38040557  0.07098045  0.97494422     0.16600
C1620       C  0.34983572  0.11786365  0.03220877     0.28800
C1621       C  0.36548401  0.14059698  0.04295533    -0.25100
C1622       C  0.38390727  0.15593670  0.02544006    -0.24300
C1623       C  0.38453365  0.14989119  0.99626033     0.40300
C1624       C  0.36839272  0.12764413  0.98540516    -0.26800
O1625       O  0.33462016  0.10143427  0.05062184    -0.58700
H1626       H  0.36490950  0.14472680  0.06549448     0.15900
O1627       O  0.40196138  0.16463979  0.97838206    -0.60100
H1628       H  0.37002538  0.12262028  0.96310129     0.14400
H1629       H  0.37818224  0.01101433  0.97134169     0.46200
H1630       H  0.34776332  0.08622028  0.05662473     0.41600
H1631       H  0.39002164  0.17998767  0.97051826     0.45000
H1632       H  0.28644556  0.08502663  0.02601545     0.36500
C1633       C  0.35073452  0.30234327  0.00809051    -0.27700
C1634       C  0.35973751  0.33046285  0.00582213     0.01900
C1635       C  0.38744323  0.33751121  0.01424481     0.30000
C1636       C  0.40531076  0.31665827  0.02547395    -0.19500
C1637       C  0.39601814  0.28854144  0.02829789    -0.28900
C1638       C  0.36862252  0.28144970  0.01875493     0.44000
C1639       C  0.33932325  0.35215723  0.99594703     0.05200
O1640       O  0.39714182  0.36472733  0.01188607    -0.57400
H1641       H  0.42629856  0.32265210  0.03241137     0.18100
O1642       O  0.35875809  0.25422863  0.02017615    -0.64200
H1643       H  0.32940291  0.29656302  0.00209901     0.16600
C1644       C  0.32361679  0.34818977  0.97094659     0.28800
C1645       C  0.30240116  0.36745947  0.96349024    -0.25100
C1646       C  0.29626819  0.39088258  0.98071919    -0.24300
C1647       C  0.31261209  0.39520163  0.00541760     0.40300
C1648       C  0.33384959  0.37592697  0.01279373    -0.26800
O1649       O  0.32944582  0.32592157  0.95327078    -0.58700
H1650       H  0.29064912  0.36389655  0.94414655     0.15900
O1651       O  0.30853413  0.41847563  0.02223453    -0.60100
H1652       H  0.34563118  0.37923236  0.03217195     0.14400
H1653       H  0.36466862  0.24530818  0.00213016     0.46200
H1654       H  0.31303292  0.31298912  0.95493888     0.41600
H1655       H  0.29581808  0.41202008  0.03760871     0.45000
H1656       H  0.40558540  0.36589951  0.99272372     0.36500
C1657       C  0.52839242  0.18384533  0.87190750    -0.27700
C1658       C  0.50463401  0.17917438  0.88904009     0.01900
C1659       C  0.48803127  0.15495542  0.88462674     0.30000
C1660       C  0.49669738  0.13456263  0.86516122    -0.19500
C1661       C  0.52220635  0.13762564  0.85014518    -0.28900
C1662       C  0.53712529  0.16338097  0.85233268     0.44000
C1663       C  0.50102800  0.19530086  0.91551012     0.05200
O1664       O  0.46471226  0.14977566  0.90110646    -0.57400
H1665       H  0.48436656  0.11534981  0.86343394     0.18100
O1666       O  0.56143863  0.16790625  0.83722537    -0.64200
H1667       H  0.54130804  0.20246843  0.87516644     0.16600
C1668       C  0.52061738  0.19105712  0.93750138     0.28800
C1669       C  0.51393162  0.19943060  0.96494150    -0.25100
C1670       C  0.48799937  0.21249697  0.97088253    -0.24300
C1671       C  0.46936117  0.21896836  0.94857468     0.40300
C1672       C  0.47585805  0.21012735  0.92098262    -0.26800
O1673       O  0.54494481  0.17590000  0.93296646    -0.58700
H1674       H  0.52843358  0.19429492  0.98196059     0.15900
O1675       O  0.44392496  0.23188424  0.95383149    -0.60100
H1676       H  0.46053766  0.21326268  0.90422669     0.14400
H1677       H  0.55511391  0.17654875  0.81917919     0.46200
H1678       H  0.55966898  0.19026190  0.92896408     0.41600
H1679       H  0.43060132  0.21629148  0.95813106     0.45000
H1680       H  0.47191744  0.13921841  0.91775690     0.36500
C1681       C  0.01999531  0.65616411  0.63942453    -0.27700
C1682       C  0.02826653  0.65965368  0.66763383     0.01900
C1683       C  0.04504981  0.68296981  0.67533918     0.30000
C1684       C  0.05291419  0.70282768  0.65481636    -0.19500
C1685       C  0.04341628  0.70001242  0.62686766    -0.28900
C1686       C  0.02719457  0.67628690  0.61912622     0.44000
C1687       C  0.01746551  0.63968455  0.68889743     0.05200
O1688       O  0.05403299  0.68623518  0.70274703    -0.57400
H1689       H  0.06555854  0.72091465  0.66092894     0.18100
O1690       O  0.01880867  0.67231535  0.59161636    -0.64200
H1691       H  0.00714467  0.63821492  0.63330827     0.16600
C1692       C  0.99842977  0.64893958  0.70975844     0.28800
C1693       C  0.98594152  0.62938236  0.72791169    -0.25100
C1694       C  0.99197461  0.60043454  0.72544817    -0.24300
C1695       C  0.01127463  0.59115922  0.70474829     0.40300
C1696       C  0.02383933  0.61080717  0.68656586    -0.26800
O1697       O  0.99112441  0.67692900  0.71190092    -0.58700
H1698       H  0.97116165  0.63685826  0.74375698     0.15900
O1699       O  0.01720398  0.56296454  0.70143933    -0.60100
H1700       H  0.03811441  0.60347628  0.67020681     0.14400
H1701       H  0.99879698  0.67857400  0.59095988     0.46200
H1702       H  0.97466336  0.67934325  0.69912156     0.41600
H1703       H  0.00274766  0.55586460  0.68800552     0.45000
H1704       H  0.04299708  0.70236084  0.71036755     0.36500
C1705       C  0.12656038  0.66145422  0.50575481    -0.27700
C1706       C  0.15555526  0.66729041  0.50658931     0.01900
C1707       C  0.16508159  0.69278683  0.51836169     0.30000
C1708       C  0.14563931  0.71183321  0.52989234    -0.19500
C1709       C  0.11647812  0.70581321  0.52987364    -0.28900
C1710       C  0.10700737  0.68056507  0.51698102     0.44000
C1711       C  0.17574045  0.64613976  0.49594170     0.05200
O1712       O  0.19339805  0.69898450  0.51919318    -0.57400
H1713       H  0.15355300  0.73111845  0.53935601     0.18100
O1714       O  0.07880351  0.67399936  0.51563489    -0.64200
H1715       H  0.11908975  0.64190472  0.49644296     0.16600
C1716       C  0.17919396  0.62025781  0.51012403     0.28800
C1717       C  0.19800058  0.60010181  0.49956056    -0.25100
C1718       C  0.21355959  0.60543732  0.47485146    -0.24300
C1719       C  0.21014995  0.63146722  0.46071334     0.40300
C1720       C  0.19137326  0.65168197  0.47138864    -0.26800
O1721       O  0.16493936  0.61492373  0.53482296    -0.58700
H1722       H  0.20065249  0.58035535  0.51090042     0.15900
O1723       O  0.22458673  0.63713245  0.43620299    -0.60100
H1724       H  0.18867629  0.67155513  0.46029576     0.14400
H1725       H  0.07209576  0.68228191  0.49755503     0.46200
H1726       H  0.14832124  0.60345078  0.52921554     0.41600
H1727       H  0.21258244  0.62941663  0.42083083     0.45000
H1728       H  0.20024404  0.69105873  0.53737697     0.36500
C1729       C  0.66579583  0.87986927  0.53143633    -0.27700
C1730       C  0.66831738  0.85193157  0.54084224     0.01900
C1731       C  0.69026616  0.84438183  0.55946512     0.30000
C1732       C  0.70999109  0.86465068  0.56780485    -0.19500
C1733       C  0.70818147  0.89230145  0.55734941    -0.28900
C1734       C  0.68564253  0.90004012  0.53946425     0.44000
C1735       C  0.64925081  0.83047136  0.52922216     0.05200
O1736       O  0.69300997  0.81710089  0.56891376    -0.57400
H1737       H  0.72726888  0.85853146  0.58157924     0.18100
O1738       O  0.68265180  0.92735087  0.53008874    -0.64200
H1739       H  0.64897813  0.88581872  0.51703382     0.16600
C1740       C  0.61983834  0.83276518  0.53249289     0.28800
C1741       C  0.60216212  0.81283426  0.51984240    -0.25100
C1742       C  0.61352837  0.79068043  0.50361380    -0.24300
C1743       C  0.64311182  0.78859050  0.50033474     0.40300
C1744       C  0.66068826  0.80845651  0.51310775    -0.26800
O1745       O  0.60832376  0.85400786  0.54855974    -0.58700
H1746       H  0.57952134  0.81474849  0.52277456     0.15900
O1747       O  0.65504269  0.76806228  0.48367198    -0.60100
H1748       H  0.68334167  0.80704163  0.50992315     0.14400
H1749       H  0.68995717  0.92730657  0.51042382     0.46200
H1750       H  0.60088768  0.86798443  0.53478561     0.41600
H1751       H  0.66077058  0.75284759  0.49693652     0.45000
H1752       H  0.68214465  0.81639020  0.58683362     0.36500
C1753       C  0.87673945  0.84491937  0.55170373    -0.27700
C1754       C  0.87879510  0.82682634  0.57510987     0.01900
C1755       C  0.85909651  0.82937344  0.59730069     0.30000
C1756       C  0.83884594  0.85105608  0.59668650    -0.19500
C1757       C  0.83850150  0.87065768  0.57437164    -0.28900
C1758       C  0.85706868  0.86696170  0.55140540     0.44000
C1759       C  0.90465946  0.80951459  0.57811117     0.05200
O1760       O  0.86063157  0.81192316  0.62041913    -0.57400
H1761       H  0.82474380  0.85372943  0.61454591     0.18100
O1762       O  0.85660255  0.88528980  0.52889963    -0.64200
H1763       H  0.89184793  0.84329088  0.53454562     0.16600
C1764       C  0.91235983  0.78952014  0.55746708     0.28800
C1765       C  0.94016470  0.77931698  0.55642810    -0.25100
C1766       C  0.96063598  0.78920436  0.57560596    -0.24300
C1767       C  0.95207822  0.80714851  0.59786334     0.40300
C1768       C  0.92429391  0.81712805  0.59895980    -0.26800
O1769       O  0.89342141  0.78137040  0.53707906    -0.58700
H1770       H  0.94613498  0.76524072  0.53937742     0.15900
O1771       O  0.97110288  0.81657082  0.61761814    -0.60100
H1772       H  0.91866199  0.83256023  0.61493834     0.14400
H1773       H  0.87244173  0.89860307  0.53225871     0.46200
H1774       H  0.88216631  0.76605569  0.54591851     0.41600
H1775       H  0.97107371  0.80198279  0.63268722     0.45000
H1776       H  0.85026925  0.79457751  0.61485835     0.36500
C1777       C  0.64583511  0.99602126  0.71396429    -0.27700
C1778       C  0.65859766  0.01574984  0.69598893     0.01900
C1779       C  0.65098304  0.04439739  0.69770723     0.30000
C1780       C  0.63050341  0.05300276  0.71714558    -0.19500
C1781       C  0.61726172  0.03323928  0.73496309    -0.28900
C1782       C  0.62521087  0.00447976  0.73328217     0.44000
C1783       C  0.67931959  0.00597831  0.67500953     0.05200
O1784       O  0.66329131  0.06406563  0.68031273    -0.57400
H1785       H  0.62465701  0.07513901  0.71789349     0.18100
O1786       O  0.61329541  0.98449092  0.75060933    -0.64200
H1787       H  0.65152980  0.97386303  0.71264394     0.16600
C1788       C  0.70439231  0.99260195  0.68360486     0.28800
C1789       C  0.72321233  0.98233923  0.66333902    -0.25100
C1790       C  0.71711938  0.98474086  0.63431425    -0.24300
C1791       C  0.69201939  0.99858668  0.62580862     0.40300
C1792       C  0.67338391  0.00907183  0.64616096    -0.26800
O1793       O  0.71084822  0.98992528  0.71177992    -0.58700
H1794       H  0.74235733  0.97196394  0.67048450     0.15900
O1795       O  0.68507280  0.00144782  0.59777967    -0.60100
H1796       H  0.65393080  0.01916867  0.63942623     0.14400
H1797       H  0.59837492  0.97536133  0.73903813     0.46200
H1798       H  0.70620714  0.97007486  0.71668153     0.41600
H1799       H  0.69349032  0.01971440  0.59186427     0.45000
H1800       H  0.68060456  0.07021547  0.69041256     0.36500
C1801       C  0.13754683  0.00536548  0.83320671    -0.27700
C1802       C  0.16004040  0.02306567  0.84064390     0.01900
C1803       C  0.16097320  0.05093004  0.83042489     0.30000
C1804       C  0.13997681  0.06044992  0.81187223    -0.19500
C1805       C  0.11758362  0.04259786  0.80409837    -0.28900
C1806       C  0.11616992  0.01504566  0.81534685     0.44000
C1807       C  0.18306191  0.01142782  0.85790059     0.05200
O1808       O  0.18298661  0.06844707  0.83739499    -0.57400
H1809       H  0.14122023  0.08173842  0.80349435     0.18100
O1810       O  0.09497506  0.99683566  0.80760351    -0.64200
H1811       H  0.13680033  0.98382765  0.84101137     0.16600
C1812       C  0.18679479  0.01979210  0.88614720     0.28800
C1813       C  0.20735536  0.00655877  0.90275944    -0.25100
C1814       C  0.22389808  0.98456171  0.89158751    -0.24300
C1815       C  0.22056240  0.97677263  0.86299401     0.40300
C1816       C  0.20025637  0.99027893  0.84636579    -0.26800
O1817       O  0.16983856  0.04016570  0.89791397    -0.58700
H1818       H  0.20953469  0.01270123  0.92472900     0.15900
O1819       O  0.23733494  0.95634716  0.85100323    -0.60100
H1820       H  0.19754615  0.98390244  0.82451181     0.14400
H1821       H  0.08092808  0.99782696  0.82314617     0.46200
H1822       H  0.15307206  0.02986770  0.90514814     0.41600
H1823       H  0.22547268  0.93907495  0.85042169     0.45000
H1824       H  0.17574128  0.08042724  0.85300669     0.36500
C1825       C  0.08484172  0.93017236  0.67929456    -0.27700
C1826       C  0.07036474  0.90833212  0.69308739     0.01900
C1827       C  0.05599608  0.91417019  0.71854836     0.30000
C1828       C  0.05524950  0.94195073  0.72917272    -0.19500
C1829       C  0.06807367  0.96408742  0.71412678    -0.28900
C1830       C  0.08362222  0.95783191  0.68948967     0.44000
C1831       C  0.06804783  0.88065963  0.67857489     0.05200
O1832       O  0.04227465  0.89296684  0.73280007    -0.57400
H1833       H  0.04305935  0.94646515  0.74803915     0.18100
O1834       O  0.09648307  0.97895423  0.67434930    -0.64200
H1835       H  0.09585008  0.92603403  0.65961848     0.16600
C1836       C  0.04200431  0.87203670  0.66695585     0.28800
C1837       C  0.04100957  0.84914117  0.64823639    -0.25100
C1838       C  0.06571608  0.83449342  0.64090902    -0.24300
C1839       C  0.09155618  0.84222679  0.65343602     0.40300
C1840       C  0.09263257  0.86531519  0.67200850    -0.26800
O1841       O  0.01776714  0.88713657  0.67208485    -0.58700
H1842       H  0.02112896  0.84377573  0.63819343     0.15900
O1843       O  0.11621885  0.82920454  0.64548540    -0.60100
H1844       H  0.11290124  0.87216465  0.68019425     0.14400
H1845       H  0.11556169  0.98082271  0.68282611     0.46200
H1846       H  0.01745059  0.90222634  0.65751094     0.41600
H1847       H  0.11905181  0.81383385  0.65946824     0.45000
H1848       H  0.02184516  0.89624787  0.72936278     0.36500
C1849       C  0.00454485  0.15851075  0.81769389    -0.27700
C1850       C  0.98750059  0.14719010  0.83904639     0.01900
C1851       C  0.98116785  0.11812926  0.83902736     0.30000
C1852       C  0.99309617  0.10050135  0.81844109    -0.19500
C1853       C  0.01176661  0.11160852  0.79823022    -0.28900
C1854       C  0.01667322  0.14098325  0.79735785     0.44000
C1855       C  0.97889668  0.16557167  0.86261637     0.05200
O1856       O  0.96467434  0.10658242  0.85989769    -0.57400
H1857       H  0.98914901  0.07796061  0.81935305     0.18100
O1858       O  0.03428625  0.15256492  0.77741119    -0.64200
H1859       H  0.00929353  0.18092426  0.81742475     0.16600
C1860       C  0.99960010  0.17862816  0.87946393     0.28800
C1861       C  0.99155486  0.19666768  0.90128229    -0.25100
C1862       C  0.96285105  0.20192934  0.90691171    -0.24300
C1863       C  0.94207139  0.18849562  0.89014531     0.40300
C1864       C  0.95023035  0.17046718  0.86814003    -0.26800
O1865       O  0.02783320  0.17388011  0.87472345    -0.58700
H1866       H  0.00797276  0.20659950  0.91379116     0.15900
O1867       O  0.91380355  0.19287670  0.89488610    -0.60100
H1868       H  0.93418258  0.16048041  0.85519864     0.14400
H1869       H  0.02178250  0.16346873  0.76457828     0.46200
H1870       H  0.03218911  0.15599239  0.88477905     0.41600
H1871       H  0.90808552  0.17774676  0.90823627     0.45000
H1872       H  0.97792715  0.10200789  0.87551358     0.36500
C1873       C  0.88733334  0.97066770  0.66928109    -0.27700
C1874       C  0.89087369  0.00018326  0.66992129     0.01900
C1875       C  0.87081544  0.01760780  0.65643469     0.30000
C1876       C  0.84910807  0.00546348  0.64071152    -0.19500
C1877       C  0.84659257  0.97599808  0.63873825    -0.28900
C1878       C  0.86514459  0.95852655  0.65402492     0.44000
C1879       C  0.91696194  0.01238232  0.68202398     0.05200
O1880       O  0.87305564  0.04651036  0.65729008    -0.57400
H1881       H  0.83481834  0.01911096  0.62905573     0.18100
O1882       O  0.86308701  0.92963568  0.65247127    -0.64200
H1883       H  0.90274824  0.95688191  0.67912940     0.16600
C1884       C  0.92708336  0.00394308  0.70868599     0.28800
C1885       C  0.95314239  0.01392560  0.71832028    -0.25100
C1886       C  0.96955158  0.03226870  0.70163556    -0.24300
C1887       C  0.95863072  0.04187270  0.67557295     0.40300
C1888       C  0.93282398  0.03153608  0.66580554    -0.26800
O1889       O  0.91147191  0.98625139  0.72558272    -0.58700
H1890       H  0.96078761  0.00661631  0.73865601     0.15900
O1891       O  0.97345151  0.06032844  0.65880907    -0.60100
H1892       H  0.92560583  0.03792081  0.64500681     0.14400
H1893       H  0.87450405  0.92414826  0.63575053     0.46200
H1894       H  0.92207064  0.96814751  0.72611156     0.41600
H1895       H  0.96737753  0.07943259  0.66498381     0.45000
H1896       H  0.86505488  0.05209695  0.67584725     0.36500
C1897       C  0.99719937  0.37217202  0.35519375    -0.27700
C1898       C  0.99972572  0.34293904  0.35101251     0.01900
C1899       C  0.01309307  0.33262978  0.32666740     0.30000
C1900       C  0.02338493  0.35143165  0.30650221    -0.19500
C1901       C  0.02098905  0.38084918  0.31030451    -0.28900
C1902       C  0.00800163  0.39119381  0.33514932     0.44000
C1903       C  0.98841937  0.32287193  0.37187447     0.05200
O1904       O  0.01534661  0.30408493  0.32200546    -0.57400
H1905       H  0.03330587  0.34276036  0.28776015     0.18100
O1906       O  0.00505092  0.41966432  0.33973717    -0.64200
H1907       H  0.98695017  0.38019759  0.37405034     0.16600
C1908       C  0.00689724  0.30678758  0.38862662     0.28800
C1909       C  0.99619277  0.28560088  0.40609407    -0.25100
C1910       C  0.96694328  0.28014029  0.40736123    -0.24300
C1911       C  0.94841659  0.29667138  0.39073624     0.40300
C1912       C  0.95926959  0.31784892  0.37311604    -0.26800
O1913       O  0.03553601  0.31127079  0.38760198    -0.58700
H1914       H  0.01096913  0.27341197  0.41868998     0.15900
O1915       O  0.91977463  0.29225788  0.39131488    -0.60100
H1916       H  0.94496966  0.33002548  0.35996573     0.14400
H1917       H  0.02184299  0.42514326  0.35104515     0.46200
H1918       H  0.03923771  0.32629799  0.40174285     0.41600
H1919       H  0.91250224  0.30527628  0.40606191     0.45000
H1920       H  0.03487096  0.29904832  0.32778968     0.36500
C1921       C  0.78555049  0.09166775  0.53687374    -0.27700
C1922       C  0.81429960  0.09876094  0.53560414     0.01900
C1923       C  0.83486149  0.07843440  0.54267857     0.30000
C1924       C  0.82672860  0.05099568  0.54922898    -0.19500
C1925       C  0.79815153  0.04323461  0.54888239    -0.28900
C1926       C  0.77733566  0.06406618  0.54397702     0.44000
C1927       C  0.82381242  0.12576830  0.52347243     0.05200
O1928       O  0.86315388  0.08482480  0.54170331    -0.57400
H1929       H  0.84299512  0.03543049  0.55359502     0.18100
O1930       O  0.74916631  0.05725383  0.54400517    -0.64200
H1931       H  0.76962632  0.10722155  0.53142148     0.16600
C1932       C  0.82306515  0.12956166  0.49393771     0.28800
C1933       C  0.84234733  0.14791082  0.48100941    -0.25100
C1934       C  0.86236067  0.16235436  0.49742739    -0.24300
C1935       C  0.86026532  0.16151907  0.52718680     0.40300
C1936       C  0.84097251  0.14326800  0.54001425    -0.26800
O1937       O  0.80645325  0.11256494  0.47734584    -0.58700
H1938       H  0.84352670  0.14856678  0.45812890     0.15900
O1939       O  0.87901150  0.17617711  0.54380568    -0.60100
H1940       H  0.84162349  0.14050454  0.56276875     0.14400
H1941       H  0.74274063  0.06067925  0.56367864     0.46200
H1942       H  0.78805059  0.12253705  0.47603721     0.41600
H1943       H  0.86750695  0.19046130  0.55395977     0.45000
H1944       H  0.86893541  0.08132613  0.52184269     0.36500
C1945       C  0.84401690  0.29241708  0.52741298    -0.27700
C1946       C  0.84923269  0.32147151  0.52450289     0.01900
C1947       C  0.87405908  0.33044737  0.51057078     0.30000
C1948       C  0.89266545  0.31049294  0.49916857    -0.19500
C1949       C  0.88647236  0.28157106  0.50072727    -0.28900
C1950       C  0.86220012  0.27255763  0.51539248     0.44000
C1951       C  0.82820801  0.34207860  0.53527825     0.05200
O1952       O  0.87989483  0.35863507  0.50712949    -0.57400
H1953       H  0.91133907  0.31770119  0.48802608     0.18100
O1954       O  0.85605841  0.24435738  0.51812210    -0.64200
H1955       H  0.82560940  0.28504404  0.53885722     0.16600
C1956       C  0.79918095  0.33903748  0.52898040     0.28800
C1957       C  0.77973048  0.35893340  0.53895740    -0.25100
C1958       C  0.78886625  0.38229678  0.55461645    -0.24300
C1959       C  0.81771827  0.38541649  0.56099399     0.40300
C1960       C  0.83712975  0.36518453  0.55165795    -0.26800
O1961       O  0.78988562  0.31768935  0.51166389    -0.58700
H1962       H  0.75756531  0.35665389  0.53357671     0.15900
O1963       O  0.82710498  0.40814058  0.57636044    -0.60100
H1964       H  0.85922261  0.36760869  0.55718584     0.14400
H1965       H  0.86560009  0.23841447  0.53582798     0.46200
H1966       H  0.77900121  0.30475878  0.52407746     0.41600
H1967       H  0.82633359  0.40194725  0.59639048     0.45000
H1968       H  0.86980952  0.36426455  0.48961310     0.36500
C1969       C  0.99867687  0.16918070  0.66490722    -0.27700
C1970       C  0.00530814  0.16824778  0.63603738     0.01900
C1971       C  0.02844283  0.15208583  0.62676216     0.30000
C1972       C  0.04363284  0.13573399  0.64600285    -0.19500
C1973       C  0.03591669  0.13487565  0.67467283    -0.28900
C1974       C  0.01387889  0.15256216  0.68430236     0.44000
C1975       C  0.98620821  0.18047469  0.61470024     0.05200
O1976       O  0.03554424  0.15125928  0.59861211    -0.57400
H1977       H  0.06068849  0.12258146  0.63815154     0.18100
O1978       O  0.00583066  0.15240143  0.71214648    -0.64200
H1979       H  0.98077940  0.18152057  0.67213633     0.16600
C1980       C  0.96808664  0.16229393  0.59976534     0.28800
C1981       C  0.95704538  0.17072872  0.57373244    -0.25100
C1982       C  0.96374346  0.19729504  0.56241484    -0.24300
C1983       C  0.97895046  0.21681427  0.57901961     0.40300
C1984       C  0.99040047  0.20817748  0.60501958    -0.26800
O1985       O  0.96282697  0.13547640  0.60955369    -0.58700
H1986       H  0.94483219  0.15572421  0.56145364     0.15900
O1987       O  0.98481892  0.24338202  0.56898917    -0.60100
H1988       H  0.00430558  0.22230834  0.61648040     0.14400
H1989       H  0.99124020  0.13742667  0.71359891     0.46200
H1990       H  0.97510482  0.12282898  0.59819184     0.41600
H1991       H  0.00306121  0.24154511  0.55881213     0.45000
H1992       H  0.02716881  0.13350588  0.59125703     0.36500
C1993       C  0.80912025  0.99068664  0.17807677    -0.27700
C1994       C  0.82543026  0.96747093  0.16980140     0.01900
C1995       C  0.82271754  0.95663720  0.14226495     0.30000
C1996       C  0.80400727  0.96938193  0.12314394    -0.19500
C1997       C  0.78847215  0.99350924  0.13093984    -0.28900
C1998       C  0.79096755  0.00392292  0.15888175     0.44000
C1999       C  0.84788281  0.95747503  0.18890112     0.05200
O2000       O  0.83853592  0.93383510  0.13382901    -0.57400
H2001       H  0.80246530  0.96097234  0.10188837     0.18100
O2002       O  0.77580719  0.02702571  0.16773623    -0.64200
H2003       H  0.81139069  0.99933529  0.19918522     0.16600
C2004       C  0.87584778  0.96602762  0.18412328     0.28800
C2005       C  0.89686922  0.95910851  0.20356200    -0.25100
C2006       C  0.89053205  0.94379698  0.22828867    -0.24300
C2007       C  0.86241589  0.93472076  0.23279581     0.40300
C2008       C  0.84127673  0.94174043  0.21315070    -0.26800
O2009       O  0.88271198  0.98181349  0.16076124    -0.58700
H2010       H  0.91818504  0.96635930  0.19940011     0.15900
O2011       O  0.85539770  0.91876823  0.25598440    -0.60100
H2012       H  0.81966345  0.93520183  0.21698066     0.14400
H2013       H  0.78910637  0.04318271  0.16643472     0.46200
H2014       H  0.88002122  0.00176644  0.16662017     0.41600
H2015       H  0.84793071  0.93243203  0.27002842     0.45000
H2016       H  0.85487663  0.94195201  0.12350431     0.36500
C2017       C  0.84318064  0.92335856  0.37853168    -0.27700
C2018       C  0.84309989  0.94480481  0.39895000     0.01900
C2019       C  0.86510134  0.96486059  0.39915177     0.30000
C2020       C  0.88713747  0.96280161  0.37956892    -0.19500
C2021       C  0.88789210  0.94069438  0.35977821    -0.28900
C2022       C  0.86524483  0.92119953  0.35900239     0.44000
C2023       C  0.82273436  0.94354488  0.42258853     0.05200
O2024       O  0.86663435  0.98492058  0.42006205    -0.57400
H2025       H  0.90434598  0.97785240  0.38081628     0.18100
O2026       O  0.86489445  0.89928036  0.34002316    -0.64200
H2027       H  0.82653072  0.90763266  0.37838012     0.16600
C2028       C  0.80682692  0.96735834  0.43076170     0.28800
C2029       C  0.79374122  0.96785365  0.45728988    -0.25100
C2030       C  0.79632494  0.94467688  0.47564910    -0.24300
C2031       C  0.80907525  0.91960468  0.46587109     0.40300
C2032       C  0.82226043  0.91920296  0.43951628    -0.26800
O2033       O  0.80571906  0.99092683  0.41390303    -0.58700
H2034       H  0.78370577  0.98719130  0.46438927     0.15900
O2035       O  0.81078004  0.89613827  0.48285374    -0.60100
H2036       H  0.83400922  0.90053625  0.43328835     0.14400
H2037       H  0.85573557  0.90705775  0.32282498     0.46200
H2038       H  0.78934906  0.98780720  0.40118222     0.41600
H2039       H  0.79237457  0.88638451  0.48055167     0.45000
H2040       H  0.86249598  0.00316939  0.41057917     0.36500
C2041       C  0.01246797  0.85197552  0.39908843    -0.27700
C2042       C  0.00241081  0.82425772  0.39698488     0.01900
C2043       C  0.98475262  0.81669491  0.37432015     0.30000
C2044       C  0.97673213  0.83716227  0.35438196    -0.19500
C2045       C  0.98571424  0.86534515  0.35727463    -0.28900
C2046       C  0.00426709  0.87247587  0.37952914     0.44000
C2047       C  0.00794050  0.80496714  0.42077213     0.05200
O2048       O  0.97429262  0.78976104  0.37222546    -0.57400
H2049       H  0.96239454  0.83131461  0.33749740     0.18100
O2050       O  0.01371424  0.89967788  0.38295222    -0.64200
H2051       H  0.02583564  0.85802574  0.41670721     0.16600
C2052       C  0.03539416  0.79471074  0.42598398     0.28800
C2053       C  0.04212188  0.78331639  0.45251681    -0.25100
C2054       C  0.02179972  0.78294371  0.47406466    -0.24300
C2055       C  0.99381111  0.79113570  0.46808879     0.40300
C2056       C  0.98699551  0.80196327  0.44147606    -0.26800
O2057       O  0.05607972  0.79727773  0.40582527    -0.58700
H2058       H  0.06372401  0.77708490  0.45697217     0.15900
O2059       O  0.97352589  0.79060987  0.48882350    -0.60100
H2060       H  0.96589100  0.81011281  0.43775145     0.14400
H2061       H  0.03354416  0.89949871  0.37618793     0.46200
H2062       H  0.06605060  0.81513926  0.41038848     0.41600
H2063       H  0.96371692  0.77225121  0.48640310     0.45000
H2064       H  0.98858355  0.77919630  0.36109719     0.36500
C2065       C  0.92508408  0.10076712  0.37253873    -0.27700
C2066       C  0.93854093  0.10890498  0.34745641     0.01900
C2067       C  0.94782661  0.13702885  0.34444571     0.30000
C2068       C  0.94402334  0.15642630  0.36673044    -0.19500
C2069       C  0.93178161  0.14780908  0.39246772    -0.28900
C2070       C  0.92193348  0.11973546  0.39497385     0.44000
C2071       C  0.94554048  0.08650082  0.32665669     0.05200
O2072       O  0.96063796  0.14564797  0.31989495    -0.57400
H2073       H  0.95171607  0.17785521  0.36431234     0.18100
O2074       O  0.90897445  0.11059005  0.41927562    -0.64200
H2075       H  0.91802230  0.07913442  0.37521773     0.16600
C2076       C  0.97331856  0.07592254  0.32535570     0.28800
C2077       C  0.97852823  0.04963514  0.31287094    -0.25100
C2078       C  0.95634874  0.03350954  0.30149208    -0.24300
C2079       C  0.92908307  0.04534767  0.30008684     0.40300
C2080       C  0.92373392  0.07156824  0.31301837    -0.26800
O2081       O  0.99506785  0.08982361  0.33858206    -0.58700
H2082       H  0.99966490  0.04081361  0.31404261     0.15900
O2083       O  0.90698119  0.03008769  0.28921069    -0.60100
H2084       H  0.90220174  0.07932208  0.31414242     0.14400
H2085       H  0.92369582  0.09988701  0.42973253     0.46200
H2086       H  0.99545811  0.08221710  0.35813572     0.41600
H2087       H  0.90572404  0.03587868  0.26908569     0.45000
H2088       H  0.98119329  0.14547740  0.32403400     0.36500
C2089       C  0.02877386  0.86010654  0.19467573    -0.27700
C2090       C  0.01314125  0.83577111  0.18840036     0.01900
C2091       C  0.98779291  0.83042626  0.20286122     0.30000
C2092       C  0.97778093  0.84995232  0.22257738    -0.19500
C2093       C  0.99267876  0.87513381  0.22805261    -0.28900
C2094       C  0.01875285  0.87978635  0.21428664     0.44000
C2095       C  0.02253680  0.81704046  0.16542885     0.05200
O2096       O  0.97222218  0.80662658  0.19721377    -0.57400
H2097       H  0.95786919  0.84562198  0.23302914     0.18100
O2098       O  0.03453763  0.90351113  0.21956909    -0.64200
H2099       H  0.04856075  0.86413196  0.18385272     0.16600
C2100       C  0.02433507  0.82730666  0.13759640     0.28800
C2101       C  0.03296240  0.80936586  0.11583132    -0.25100
C2102       C  0.04017669  0.78111222  0.12146042    -0.24300
C2103       C  0.03788267  0.77074819  0.14941328     0.40300
C2104       C  0.02916817  0.78875829  0.17115195    -0.26800
O2105       O  0.01671872  0.85460740  0.13137080    -0.58700
H2106       H  0.03422788  0.81772684  0.09452911     0.15900
O2107       O  0.04392602  0.74309206  0.15576616    -0.60100
H2108       H  0.02760466  0.78067006  0.19254587     0.14400
H2109       H  0.02913278  0.91716669  0.20457898     0.46200
H2110       H  0.03476026  0.86518652  0.13000852     0.41600
H2111       H  0.02613470  0.73261705  0.15212323     0.45000
H2112       H  0.95966814  0.81191623  0.18125285     0.36500
C2113       C  0.33778891  0.11967005  0.49507737    -0.27700
C2114       C  0.33178885  0.14834425  0.49049820     0.01900
C2115       C  0.30750664  0.15582314  0.47500656     0.30000
C2116       C  0.28915103  0.13476651  0.46522070    -0.19500
C2117       C  0.29445855  0.10599462  0.47082563    -0.28900
C2118       C  0.31932973  0.09860579  0.48568703     0.44000
C2119       C  0.35014803  0.17010257  0.50354910     0.05200
O2120       O  0.30108241  0.18366263  0.47000024    -0.57400
H2121       H  0.27033956  0.14111194  0.45377424     0.18100
O2122       O  0.32589962  0.07091308  0.49128350    -0.64200
H2123       H  0.35669076  0.11357326  0.50652360     0.16600
C2124       C  0.35521651  0.16969835  0.53288585     0.28800
C2125       C  0.37301381  0.18980458  0.54509746    -0.25100
C2126       C  0.38642666  0.21036907  0.52844325    -0.24300
C2127       C  0.38097130  0.21119244  0.49913140     0.40300
C2128       C  0.36280158  0.19119519  0.48689706    -0.26800
O2129       O  0.34213317  0.15019051  0.54992389    -0.58700
H2130       H  0.37675250  0.18890004  0.56769922     0.15900
O2131       O  0.39246757  0.23197639  0.48248836    -0.60100
H2132       H  0.35888605  0.19191755  0.46432689     0.14400
H2133       H  0.31880466  0.06738281  0.51071103     0.46200
H2134       H  0.35707371  0.13640641  0.55513459     0.41600
H2135       H  0.40922915  0.22317751  0.47346995     0.45000
H2136       H  0.29049941  0.19000563  0.48695839     0.36500
C2137       C  0.06910507  0.15737457  0.43614768    -0.27700
C2138       C  0.09048514  0.17271575  0.44970680     0.01900
C2139       C  0.08342422  0.19645776  0.46605224     0.30000
C2140       C  0.05495752  0.20330810  0.47040726    -0.19500
C2141       C  0.03334155  0.18649008  0.45877800    -0.28900
C2142       C  0.04072795  0.16413566  0.44039583     0.44000
C2143       C  0.11909386  0.16047611  0.45034392     0.05200
O2144       O  0.10424604  0.21274189  0.47802739    -0.57400
H2145       H  0.04988586  0.22117560  0.48380698     0.18100
O2146       O  0.02050731  0.14781303  0.42753053    -0.64200
H2147       H  0.07438569  0.13901588  0.42348228     0.16600
C2148       C  0.12932518  0.14880315  0.47571164     0.28800
C2149       C  0.15202559  0.13001619  0.47505389    -0.25100
C2150       C  0.16471920  0.12243770  0.44928952    -0.24300
C2151       C  0.15635081  0.13646365  0.42428305     0.40300
C2152       C  0.13340002  0.15513786  0.42492716    -0.26800
O2153       O  0.11501652  0.15273710  0.50065582    -0.58700
H2154       H  0.15829156  0.11977237  0.49459216     0.15900
O2155       O  0.16841668  0.13001041  0.39871938    -0.60100
H2156       H  0.12552996  0.16396280  0.40528176     0.14400
H2157       H  0.01609638  0.15767237  0.40953686     0.46200
H2158       H  0.12745678  0.16490860  0.51233817     0.41600
H2159       H  0.18454258  0.14325721  0.39680726     0.45000
H2160       H  0.10231097  0.21015536  0.49875542     0.36500
C2161       C  0.21495142  0.05780232  0.59782372    -0.27700
C2162       C  0.18809320  0.06954600  0.60243910     0.01900
C2163       C  0.17095045  0.07679167  0.57919723     0.30000
C2164       C  0.18004648  0.07074030  0.55186904    -0.19500
C2165       C  0.20618555  0.05753381  0.54725824    -0.28900
C2166       C  0.22420133  0.05201253  0.57029425     0.44000
C2167       C  0.17580023  0.06999534  0.63101650     0.05200
O2168       O  0.14451001  0.08814337  0.58307600    -0.57400
H2169       H  0.16612434  0.07538834  0.53423916     0.18100
O2170       O  0.24965168  0.03869836  0.56634462    -0.64200
H2171       H  0.22813329  0.05192351  0.61563212     0.16600
C2172       C  0.16929466  0.04431658  0.64450874     0.28800
C2173       C  0.15031775  0.04405414  0.66707394    -0.25100
C2174       C  0.13765462  0.06919217  0.67642558    -0.24300
C2175       C  0.14638734  0.09520528  0.66470606     0.40300
C2176       C  0.16532657  0.09541788  0.64203899    -0.26800
O2177       O  0.17864994  0.01910463  0.63364694    -0.58700
H2178       H  0.14401350  0.02393060  0.67597419     0.15900
O2179       O  0.13406882  0.12017016  0.67284308    -0.60100
H2180       H  0.17009416  0.11525234  0.63160258     0.14400
H2181       H  0.26366479  0.05416356  0.56446599     0.46200
H2182       H  0.19588197  0.01445063  0.64465825     0.41600
H2183       H  0.14683362  0.12802155  0.68750190     0.45000
H2184       H  0.13167058  0.07169518  0.58507577     0.36500
C2185       C  0.15557748  0.99246924  0.33910350    -0.27700
C2186       C  0.12818082  0.00372575  0.33671374     0.01900
C2187       C  0.12070623  0.02755253  0.35290598     0.30000
C2188       C  0.13983854  0.03865906  0.37241139    -0.19500
C2189       C  0.16670113  0.02661975  0.37590914    -0.28900
C2190       C  0.17495657  0.00395815  0.35842772     0.44000
C2191       C  0.10585874  0.98810148  0.32142862     0.05200
O2192       O  0.09374383  0.03827194  0.35192055    -0.57400
H2193       H  0.13318510  0.05607689  0.38574635     0.18100
O2194       O  0.20109428  0.99171938  0.36137496    -0.64200
H2195       H  0.16143898  0.97395731  0.32695133     0.16600
C2196       C  0.08969210  0.00122393  0.30017700     0.28800
C2197       C  0.06384614  0.98934215  0.29192304    -0.25100
C2198       C  0.05368845  0.96465223  0.30502431    -0.24300
C2199       C  0.07151830  0.94993246  0.32387265     0.40300
C2200       C  0.09734972  0.96175024  0.33201072    -0.26800
O2201       O  0.09861442  0.02612504  0.28820498    -0.58700
H2202       H  0.05086929  0.00065605  0.27678502     0.15900
O2203       O  0.06321509  0.92485925  0.33579061    -0.60100
H2204       H  0.10977660  0.95130473  0.34820810     0.14400
H2205       H  0.19883819  0.97740114  0.37654172     0.46200
H2206       H  0.08440077  0.04055274  0.29367108     0.41600
H2207       H  0.06766014  0.91023330  0.32143905     0.45000
H2208       H  0.09552032  0.05702894  0.34270871     0.36500
C2209       C  0.37578984  0.96714491  0.34886165    -0.27700
C2210       C  0.34718652  0.96250947  0.34293660     0.01900
C2211       C  0.33935350  0.94970084  0.31729920     0.30000
C2212       C  0.36007355  0.94222381  0.29762448    -0.19500
C2213       C  0.38881843  0.94749876  0.30307904    -0.28900
C2214       C  0.39657095  0.95990687  0.32918835     0.44000
C2215       C  0.32568121  0.97385315  0.36233809     0.05200
O2216       O  0.31143176  0.94500005  0.31104066    -0.57400
H2217       H  0.35351837  0.93269836  0.27785082     0.18100
O2218       O  0.42432296  0.96514428  0.33579801    -0.64200
H2219       H  0.38198052  0.97736512  0.36841821     0.16600
C2220       C  0.32437649  0.96528680  0.39080683     0.28800
C2221       C  0.30552764  0.97863764  0.40931215    -0.25100
C2222       C  0.28837893  0.00092563  0.39975154    -0.24300
C2223       C  0.28892684  0.00854875  0.37091880     0.40300
C2224       C  0.30757661  0.99511686  0.35252298    -0.26800
O2225       O  0.34128260  0.94380928  0.40056596    -0.58700
H2226       H  0.30506998  0.97224206  0.43131917     0.15900
O2227       O  0.27163465  0.02942211  0.36054786    -0.60100
H2228       H  0.30847519  0.00187962  0.33063180     0.14400
H2229       H  0.42754502  0.98517412  0.33047743     0.46200
H2230       H  0.35680759  0.95325631  0.41101534     0.41600
H2231       H  0.25412477  0.01954914  0.35449086     0.45000
H2232       H  0.30679628  0.92670091  0.32016234     0.36500
C2233       C  0.15721196  0.87455844  0.54200811    -0.27700
C2234       C  0.16115299  0.87563210  0.51260966     0.01900
C2235       C  0.14906694  0.85451871  0.49546093     0.30000
C2236       C  0.13099556  0.83437908  0.50747958    -0.19500
C2237       C  0.12537359  0.83469433  0.53659038    -0.28900
C2238       C  0.13961457  0.85410059  0.55408354     0.44000
C2239       C  0.17404772  0.90116911  0.49996682     0.05200
O2240       O  0.15459969  0.85377504  0.46695722    -0.57400
H2241       H  0.12072438  0.81900948  0.49394747     0.18100
O2242       O  0.13429519  0.85503342  0.58259164    -0.64200
H2243       H  0.16633527  0.89072104  0.55543340     0.16600
C2244       C  0.15780163  0.91868832  0.48219144     0.28800
C2245       C  0.16862311  0.94448865  0.47287976    -0.25100
C2246       C  0.19543870  0.95385711  0.48159647    -0.24300
C2247       C  0.21204451  0.93592344  0.49888323     0.40300
C2248       C  0.20121440  0.90988621  0.50803804    -0.26800
O2249       O  0.13061158  0.91153254  0.47506061    -0.58700
H2250       H  0.15526835  0.95779161  0.45983783     0.15900
O2251       O  0.23842011  0.94396095  0.50783284    -0.60100
H2252       H  0.21378297  0.89674132  0.52199935     0.14400
H2253       H  0.14926100  0.84323074  0.59135770     0.46200
H2254       H  0.11870571  0.91875070  0.49075123     0.41600
H2255       H  0.25147165  0.93782298  0.49260944     0.45000
H2256       H  0.13636156  0.85794007  0.45746311     0.36500
loop_ 
_geom_bond_atom_site_label_1 
_geom_bond_atom_site_label_2 
_geom_bond_distance 
_geom_bond_site_symmetry_2 
_ccdc_geom_bond_type 
O1          Cr19   1.989       .  S
O1            C9   1.263       .  A
O2          Cr19   1.961       .  S
O2            C3   1.257       .  A
C3            O4   1.266       .  A
C3         C2150   1.476       .  S
O4          Cr20   2.012       .  S
O5          Cr20   1.975       .  S
O5            C6   1.261       .  A
C6            O7   1.267       .  A
C6         C2117   1.487       .  S
O7          Cr21   2.010       .  S
O8          Cr21   1.978       .  S
O8            C9   1.260       .  A
C9         C2165   1.466       .  S
O10         Cr19   1.971   1_565  S
O10          C18   1.261       .  A
O11         Cr19   2.001       .  S
O11          C12   1.264       .  A
C12          O13   1.259       .  A
C12        C2189   1.473       .  S
O13         Cr20   1.985       .  S
O14         Cr20   1.992       .  S
O14          C15   1.265       .  A
C15          O16   1.260       .  A
C15        C2222   1.470       .  S
O16         Cr21   1.973       .  S
O17         Cr21   2.016   1_565  S
O17          C18   1.268       .  A
C18        C2246   1.486       .  S
Cr19         O22   1.756       .  S
Cr20         O22   1.766       .  S
Cr21         O22   1.769       .  S
O23         Cr41   1.998       .  S
O23          C31   1.263   1_565  A
O24         Cr41   1.978       .  S
O24          C25   1.263       .  A
C25          O26   1.265       .  A
C25        C2021   1.480       .  S
O26         Cr42   1.998       .  S
O27         Cr42   1.982       .  S
O27          C28   1.261       .  A
C28          O29   1.264       .  A
C28        C2006   1.483       .  S
O29         Cr43   1.995       .  S
O30         Cr43   2.000       .  S
O30          C31   1.264   1_565  A
C31        C2078   1.477       .  S
O32         Cr41   1.978   1_455  S
O32          C40   1.261       .  A
O33         Cr41   1.991       .  S
O33          C34   1.262       .  A
C34          O35   1.260       .  A
C34        C2045   1.477       .  S
O35         Cr42   1.984       .  S
O36         Cr42   1.993       .  S
O36          C37   1.264       .  A
C37          O38   1.262       .  A
C37        C2093   1.480       .  S
O38         Cr43   1.977       .  S
O39         Cr43   2.007   1_455  S
O39          C40   1.266       .  A
C40        C2198   1.480       .  S
Cr41         O44   1.762       .  S
Cr42         O44   1.773       .  S
Cr43         O44   1.767       .  S
O45         Cr63   2.009       .  S
O45          C53   1.269   1_655  A
O46         Cr63   1.953       .  S
O46          C47   1.256       .  A
C47          O48   1.269       .  A
C47        C1910   1.481       .  S
O48         Cr64   2.019       .  S
O49         Cr64   1.997       .  S
O49          C50   1.262       .  A
C50          O51   1.264       .  A
C50        C2069   1.487       .  S
O51         Cr65   2.003       .  S
O52         Cr65   1.965       .  S
O52          C53   1.261   1_655  A
C53        C2141   1.479       .  S
O54         Cr63   1.981       .  S
O54          C62   1.257       .  A
O55         Cr63   2.005       .  S
O55          C56   1.265       .  A
C56          O57   1.257       .  A
C56        C1949   1.469       .  S
O57         Cr64   1.964       .  S
O58         Cr64   2.024       .  S
O58          C59   1.271       .  A
C59          O60   1.258       .  A
C59        C1934   1.472       .  S
O60         Cr65   1.955       .  S
O61         Cr65   1.995       .  S
O61          C62   1.263       .  A
C62        C1982   1.472       .  S
Cr63         O66   1.768       .  S
Cr64         O66   1.767       .  S
Cr65         O66   1.756       .  S
O67         Cr85   1.996       .  S
O67          C75   1.262   1_545  A
O68         Cr85   1.997       .  S
O68          C69   1.266       .  A
C69          O70   1.262       .  A
C69        C1805   1.468       .  S
O70         Cr86   1.970       .  S
O71         Cr86   2.007       .  S
O71          C72   1.265       .  A
C72          O73   1.259       .  A
C72        C2174   1.471       .  S
O73         Cr87   1.967       .  S
O74         Cr87   1.986       .  S
O74          C75   1.260   1_545  A
C75        C1829   1.475       .  S
O76         Cr85   1.997       .  S
O76          C84   1.266   1_455  A
O77         Cr85   1.983       .  S
O77          C78   1.260       .  A
C78          O79   1.260       .  A
C78        C1853   1.470       .  S
O79         Cr86   1.982       .  S
O80         Cr86   1.991       .  S
O80          C81   1.261       .  A
C81          O82   1.262       .  A
C81        C1973   1.477       .  S
O82         Cr87   1.995       .  S
O83         Cr87   1.967       .  S
O83          C84   1.260   1_455  A
C84        C1886   1.476       .  S
Cr85         O88   1.772       .  S
Cr86         O88   1.771       .  S
Cr87         O88   1.759       .  S
O89        Cr107   2.021       .  S
O89          C97   1.268       .  A
O90        Cr107   1.948       .  S
O90          C91   1.258       .  A
C91          O92   1.268       .  A
C91        C1733   1.460       .  S
O92        Cr108   2.008       .  S
O93        Cr108   1.981       .  S
O93          C94   1.258       .  A
C94          O95   1.263       .  A
C94        C1757   1.473       .  S
O95        Cr109   1.997       .  S
O96        Cr109   1.958       .  S
O96          C97   1.257       .  A
C97        C2030   1.469       .  S
O98        Cr107   1.974   1_545  S
O98         C106   1.257       .  A
O99        Cr107   1.998       .  S
O99         C100   1.263       .  A
C100        O101   1.258       .  A
C100       C1790   1.477       .  S
O101       Cr108   1.967       .  S
O102       Cr108   2.017       .  S
O102        C103   1.268       .  A
C103        O104   1.255       .  A
C103       C1877   1.462       .  S
O104       Cr109   1.950       .  S
O105       Cr109   1.997       .  S
O105        C106   1.265   1_565  A
C106       C1925   1.471       .  S
Cr107       O110   1.769       .  S
Cr108       O110   1.769       .  S
Cr109       O110   1.752       .  S
O111       Cr129   1.968       .  S
O111        C119   1.261   1_455  A
O112       Cr129   1.997       .  S
O112        C113   1.262       .  A
C113        O114   1.260       .  A
C113       C1838   1.470       .  S
O114       Cr130   1.987       .  S
O115       Cr130   2.010       .  S
O115        C116   1.267       .  A
C116        O117   1.257       .  A
C116       C1685   1.466       .  S
O117       Cr131   1.954       .  S
O118       Cr131   2.023   1_655  S
O118        C119   1.271       .  A
C119       C1766   1.481       .  S
O120       Cr129   1.998       .  S
O120        C128   1.261       .  A
O121       Cr129   1.976       .  S
O121        C122   1.262       .  A
C122        O123   1.267       .  A
C122       C2237   1.470       .  S
O123       Cr130   2.011       .  S
O124       Cr130   1.972       .  S
O124        C125   1.259       .  A
C125        O126   1.265       .  A
C125       C1709   1.484       .  S
O126       Cr131   2.003       .  S
O127       Cr131   1.982       .  S
O127        C128   1.256       .  A
C128       C2054   1.465       .  S
Cr129       O132   1.760       .  S
Cr130       O132   1.774       .  S
Cr131       O132   1.772       .  S
O133       Cr151   1.968       .  S
O133        C141   1.260       .  A
O134       Cr151   2.002       .  S
O134        C135   1.265       .  A
C135        O136   1.260       .  A
C135       C1565   1.480       .  S
O136       Cr152   1.986       .  S
O137       Cr152   2.015       .  S
O137        C138   1.268       .  A
C138        O139   1.259       .  A
C138       C1550   1.476       .  S
O139       Cr153   1.966       .  S
O140       Cr153   2.015       .  S
O140        C141   1.268       .  A
C141       C1598   1.477       .  S
O142       Cr151   1.999       .  S
O142        C150   1.264       .  A
O143       Cr151   1.968       .  S
O143        C144   1.260       .  A
C144        O145   1.270       .  A
C144       C1622   1.479       .  S
O145       Cr152   2.023       .  S
O146       Cr152   1.965       .  S
O146        C147   1.259       .  A
C147        O148   1.267       .  A
C147       C1637   1.483       .  S
O148       Cr153   2.012       .  S
O149       Cr153   1.987       .  S
O149        C150   1.260       .  A
C150       C1670   1.469   1_554  S
Cr151       O154   1.756       .  S
Cr152       O154   1.766       .  S
Cr153       O154   1.768       .  S
O155       Cr173   1.993       .  S
O155        C163   1.264   1_556  A
O156       Cr173   1.969       .  S
O156        C157   1.256       .  A
C157        O158   1.264       .  A
C157       C1469   1.471       .  S
O158       Cr174   2.018       .  S
O159       Cr174   1.978       .  S
O159        C160   1.263       .  A
C160        O161   1.267       .  A
C160       C1445   1.482       .  S
O161       Cr175   2.001       .  S
O162       Cr175   1.976       .  S
O162        C163   1.259   1_556  A
C163       C1526   1.466       .  S
O164       Cr173   1.974       .  S
O164        C172   1.260   1_565  A
O165       Cr173   2.007       .  S
O165        C166   1.267       .  A
C166        O167   1.258       .  A
C166       C1493   1.464       .  S
O167       Cr174   1.972       .  S
O168       Cr174   1.997       .  S
O168        C169   1.264       .  A
C169        O170   1.259       .  A
C169       C1814   1.471       .  S
O170       Cr175   1.972       .  S
O171       Cr175   2.011       .  S
O171        C172   1.267   1_565  A
C172       C1613   1.488       .  S
Cr173       O176   1.756       .  S
Cr174       O176   1.771       .  S
Cr175       O176   1.767       .  S
O177       Cr195   1.986       .  S
O177        C185   1.261       .  A
O178       Cr195   1.997       .  S
O178        C179   1.263       .  A
C179        O180   1.260       .  A
C179       C2213   1.481       .  S
O180       Cr196   1.976       .  S
O181       Cr196   2.009       .  S
O181        C182   1.267       .  A
C182        O183   1.262       .  A
C182       C1517   1.481       .  S
O183       Cr197   1.972       .  S
O184       Cr197   2.004       .  S
O184        C185   1.267       .  A
C185       C1574   1.469   1_565  S
O186       Cr195   2.001       .  S
O186        C194   1.265       .  A
O187       Cr195   1.965       .  S
O187        C188   1.258       .  A
C188        O189   1.266       .  A
C188       C1406   1.465       .  S
O189       Cr196   1.994       .  S
O190       Cr196   1.980       .  S
O190        C191   1.257       .  A
C191        O192   1.264       .  A
C191       C1382   1.473       .  S
O192       Cr197   2.004       .  S
O193       Cr197   1.981       .  S
O193        C194   1.261       .  A
C194       C1430   1.482       .  S
Cr195       O198   1.768       .  S
Cr196       O198   1.766       .  S
Cr197       O198   1.757       .  S
O199       Cr217   1.995       .  S
O199        C207   1.260       .  A
O200       Cr217   1.991       .  S
O200        C201   1.263       .  A
C201        O202   1.260       .  A
C201       C1310   1.469       .  S
O202       Cr218   1.969       .  S
O203       Cr218   2.000       .  S
O203        C204   1.267       .  A
C204        O205   1.263       .  A
C204       C1589   1.482       .  S
O205       Cr219   1.982       .  S
O206       Cr219   1.998       .  S
O206        C207   1.262       .  A
C207       C1334   1.472   1_554  S
O208       Cr217   2.002   1_565  S
O208        C216   1.266       .  A
O209       Cr217   1.983   1_565  S
O209        C210   1.262   1_565  A
C210        O211   1.263       .  A
C210       C1997   1.481   1_545  S
O211       Cr218   1.991       .  S
O212       Cr218   1.985       .  S
O212        C213   1.259       .  A
C213        O214   1.262       .  A
C213       C1421   1.469       .  S
O214       Cr219   1.997       .  S
O215       Cr219   1.976   1_565  S
O215        C216   1.263       .  A
C216       C1349   1.482       .  S
Cr217       O220   1.765       .  S
Cr218       O220   1.764       .  S
Cr219       O220   1.762       .  S
O221       Cr239   1.986       .  S
O221        C229   1.263       .  A
O222       Cr239   2.012       .  S
O222        C223   1.268       .  A
C223        O224   1.259       .  A
C223       C1229   1.479       .  S
O224       Cr240   1.969       .  S
O225       Cr240   2.009       .  S
O225        C226   1.266       .  A
C226        O227   1.260       .  A
C226       C1253   1.477       .  S
O227       Cr241   1.973       .  S
O228       Cr241   1.995       .  S
O228        C229   1.265       .  A
C229       C1478   1.478       .  S
O230       Cr239   2.012   1_554  S
O230        C238   1.267       .  A
O231       Cr239   1.970   1_554  S
O231        C232   1.258   1_554  A
C232        O233   1.264       .  A
C232       C1277   1.470   1_556  S
O233       Cr240   1.994       .  S
O234       Cr240   1.976       .  S
O234        C235   1.256       .  A
C235        O236   1.264       .  A
C235       C1358   1.459       .  S
O236       Cr241   2.000       .  S
O237       Cr241   1.977   1_554  S
O237        C238   1.261       .  A
C238       C1373   1.485       .  S
Cr239       O242   1.768       .  S
Cr240       O242   1.768       .  S
Cr241       O242   1.756       .  S
O243       Cr261   1.968       .  S
O243        C251   1.260   1_545  A
O244       Cr261   2.009       .  S
O244        C245   1.266       .  A
C245        O246   1.260       .  A
C245       C1325   1.476       .  S
O246       Cr262   1.983       .  S
O247       Cr262   2.011       .  S
O247        C248   1.268       .  A
C248        O249   1.257       .  A
C248       C1781   1.476       .  S
O249       Cr263   1.959       .  S
O250       Cr263   2.014       .  S
O250        C251   1.268   1_545  A
C251       C1262   1.484       .  S
O252       Cr261   1.996       .  S
O252        C260   1.265       .  A
O253       Cr261   1.962       .  S
O253        C254   1.257       .  A
C254        O255   1.269       .  A
C254       C1661   1.484       .  S
O255       Cr262   2.021       .  S
O256       Cr262   1.966       .  S
O256        C257   1.258       .  A
C257        O258   1.265       .  A
C257       C1205   1.461       .  S
O258       Cr263   2.010       .  S
O259       Cr263   1.972       .  S
O259        C260   1.257       .  A
C260       C1502   1.469       .  S
Cr261       O264   1.755       .  S
Cr262       O264   1.762       .  S
Cr263       O264   1.767       .  S
O265       Cr283   1.960       .  S
O265        C273   1.258       .  A
O266       Cr283   1.994       .  S
O266        C267   1.264       .  A
C267        O268   1.257       .  A
C267       C1118   1.478       .  S
O268       Cr284   1.977       .  S
O269       Cr284   2.002       .  S
O269        C270   1.264       .  A
C270        O271   1.256       .  A
C270       C1085   1.476       .  S
O271       Cr285   1.961       .  S
O272       Cr285   2.030       .  S
O272        C273   1.272       .  A
C273       C1142   1.483       .  S
O274       Cr283   1.993   1_655  S
O274        C282   1.262       .  A
O275       Cr283   1.969       .  S
O275        C276   1.261       .  A
C276        O277   1.270       .  A
C276       C1157   1.484       .  S
O277       Cr284   2.019       .  S
O278       Cr284   1.953       .  S
O278        C279   1.259       .  A
C279        O280   1.271       .  A
C279       C1901   1.482       .  S
O280       Cr285   2.022       .  S
O281       Cr285   1.978   1_655  S
O281        C282   1.256       .  A
C282       C1181   1.461       .  S
Cr283       O286   1.754       .  S
Cr284       O286   1.765       .  S
Cr285       O286   1.765       .  S
O287       Cr305   1.964       .  S
O287        C295   1.260   1_655  A
O288       Cr305   2.006       .  S
O288        C289   1.264       .  A
C289        O290   1.259       .  A
C289       C1013   1.473       .  S
O290       Cr306   1.986       .  S
O291       Cr306   2.007       .  S
O291        C292   1.266       .  A
C292        O293   1.259       .  A
C292       C1862   1.479       .  S
O293       Cr307   1.962       .  S
O294       Cr307   2.020   1_455  S
O294        C295   1.269       .  A
C295       C1070   1.469       .  S
O296       Cr305   2.002   1_554  S
O296        C304   1.264       .  A
O297       Cr305   1.967   1_554  S
O297        C298   1.261   1_554  A
C298        O299   1.269       .  A
C298       C1046   1.473   1_556  S
O299       Cr306   2.020       .  S
O300       Cr306   1.960       .  S
O300        C301   1.257       .  A
C301        O302   1.266       .  A
C301       C1301   1.477   1_556  S
O302       Cr307   2.003       .  S
O303       Cr307   1.984   1_554  S
O303        C304   1.257       .  A
C304       C1166   1.468       .  S
Cr305       O308   1.753       .  S
Cr306       O308   1.764       .  S
Cr307       O308   1.766       .  S
O309       Cr327   2.016   1_554  S
O309        C317   1.270       .  A
O310       Cr327   1.969       .  S
O310        C311   1.258       .  A
C311        O312   1.266       .  A
C311       C1646   1.486       .  S
O312       Cr328   2.006       .  S
O313       Cr328   1.998       .  S
O313        C314   1.261       .  A
C314        O315   1.258       .  A
C314       C1061   1.482       .  S
O315       Cr329   1.979       .  S
O316       Cr329   1.957   1_554  S
O316        C317   1.262       .  A
C317       C1109   1.467       .  S
O318       Cr327   1.995       .  S
O318        C326   1.257       .  A
O319       Cr327   1.993       .  S
O319        C320   1.265       .  A
C320        O321   1.257       .  A
C320        C965   1.464       .  S
O321       Cr328   1.953       .  S
O322       Cr328   2.022       .  S
O322        C323   1.271       .  A
C323        O324   1.261       .  A
C323        C950   1.468       .  S
O324       Cr329   1.965       .  S
O325       Cr329   1.981       .  S
O325        C326   1.256       .  A
C326        C998   1.471       .  S
Cr327       O330   1.774       .  S
Cr328       O330   1.773       .  S
Cr329       O330   1.756       .  S
O331       Cr349   1.988       .  S
O331        C339   1.261   1_455  A
O332       Cr349   2.004       .  S
O332        C333   1.266       .  A
C333        O334   1.258       .  A
C333       C2102   1.476       .  S
O334       Cr350   1.965       .  S
O335       Cr350   2.011       .  S
O335        C336   1.268       .  A
C336        O337   1.260       .  A
C336       C1133   1.483       .  S
O337       Cr351   1.974       .  S
O338       Cr351   2.002       .  S
O338        C339   1.265   1_455  A
C339        C902   1.482       .  S
O340       Cr349   2.014       .  S
O340        C348   1.268   1_554  A
O341       Cr349   1.974       .  S
O341        C342   1.261       .  A
C342        O343   1.266       .  A
C342       C1454   1.478       .  S
O343       Cr350   2.001       .  S
O344       Cr350   1.980       .  S
O344        C345   1.258       .  A
C345        O346   1.265       .  A
C345        C989   1.467       .  S
O346       Cr351   2.006       .  S
O347       Cr351   1.973       .  S
O347        C348   1.261   1_554  A
C348        C917   1.485       .  S
Cr349       O352   1.767       .  S
Cr350       O352   1.765       .  S
Cr351       O352   1.758       .  S
O353       Cr371   1.994       .  S
O353        C361   1.261       .  A
O354       Cr371   2.005       .  S
O354        C355   1.267       .  A
C355        O356   1.261       .  A
C355        C845   1.479       .  S
O356       Cr372   1.969       .  S
O357       Cr372   2.006       .  S
O357        C358   1.267       .  A
C358        O359   1.261       .  A
C358        C869   1.475       .  S
O359       Cr373   1.968       .  S
O360       Cr373   1.998       .  S
O360        C361   1.261       .  A
C361       C1022   1.472       .  S
O362       Cr371   2.015   1_455  S
O362        C370   1.270       .  A
O363       Cr371   1.974       .  S
O363        C364   1.259       .  A
C364        O365   1.263       .  A
C364       C1694   1.469       .  S
O365       Cr372   1.991       .  S
O366       Cr372   1.988       .  S
O366        C367   1.260       .  A
C367        O368   1.262       .  A
C367        C926   1.478       .  S
O368       Cr373   1.994       .  S
O369       Cr373   1.963       .  S
O369        C370   1.259   1_655  A
C370        C941   1.482       .  S
Cr371       O374   1.768       .  S
Cr372       O374   1.768       .  S
Cr373       O374   1.758       .  S
O375       Cr393   1.981       .  S
O375        C383   1.264       .  A
O376       Cr393   2.000       .  S
O376        C377   1.262       .  A
C377        O378   1.259       .  A
C377        C893   1.474       .  S
O378       Cr394   1.993       .  S
O379       Cr394   2.005       .  S
O379        C380   1.266       .  A
C380        O381   1.256       .  A
C380       C1286   1.477       .  S
O381       Cr395   1.954       .  S
O382       Cr395   1.995       .  S
O382        C383   1.267       .  A
C383        C878   1.479   1_554  S
O384       Cr393   1.994       .  S
O384        C392   1.263       .  A
O385       Cr393   1.961       .  S
O385        C386   1.260       .  A
C386        O387   1.269       .  A
C386       C1190   1.477       .  S
O387       Cr394   2.010       .  S
O388       Cr394   1.971       .  S
O388        C389   1.259       .  A
C389        O390   1.263       .  A
C389        C821   1.479       .  S
O390       Cr395   1.993       .  S
O391       Cr395   1.982       .  S
O391        C392   1.259       .  A
C392       C1037   1.476       .  S
Cr393       O396   1.759       .  S
Cr394       O396   1.768       .  S
Cr395       O396   1.763       .  S
O397       Cr415   2.044       .  S
O397        C405   1.273       .  A
O398       Cr415   1.952       .  S
O398        C399   1.258       .  A
C399        O400   1.268       .  A
C399        C830   1.471       .  S
O400       Cr416   2.011       .  S
O401       Cr416   1.978       .  S
O401        C402   1.258       .  A
C402        O403   1.262       .  A
C402        C725   1.472       .  S
O403       Cr417   1.993       .  S
O404       Cr417   1.958       .  S
O404        C405   1.257       .  A
C405        C782   1.483       .  S
O406       Cr415   1.974       .  S
O406        C414   1.256       .  A
O407       Cr415   2.025       .  S
O407        C408   1.270       .  A
C408        O409   1.254       .  A
C408       C1541   1.487       .  S
O409       Cr416   1.957       .  S
O410       Cr416   2.011       .  S
O410        C411   1.268       .  A
C411        O412   1.261       .  A
C411        C749   1.470       .  S
O412       Cr417   1.964       .  S
O413       Cr417   2.006       .  S
O413        C414   1.265       .  A
C414        C806   1.465       .  S
Cr415       O418   1.770       .  S
Cr416       O418   1.767       .  S
Cr417       O418   1.757       .  S
O419       Cr437   1.968       .  S
O419        C427   1.259       .  A
O420       Cr437   2.009       .  S
O420        C421   1.267       .  A
C421        O422   1.261       .  A
C421        C773   1.485       .  S
O422       Cr438   1.982       .  S
O423       Cr438   1.998       .  S
O423        C424   1.262       .  A
C424        O425   1.259       .  A
C424       C1397   1.476       .  S
O425       Cr439   1.965       .  S
O426       Cr439   2.013       .  S
O426        C427   1.266       .  A
C427        C677   1.471       .  S
O428       Cr437   2.001       .  S
O428        C436   1.264       .  A
O429       Cr437   1.977       .  S
O429        C430   1.258       .  A
C430        O431   1.264       .  A
C430        C653   1.466       .  S
O431       Cr438   2.008       .  S
O432       Cr438   1.961       .  S
O432        C433   1.259       .  A
C433        O434   1.267       .  A
C433       C1742   1.471       .  S
O434       Cr439   2.002       .  S
O435       Cr439   1.979       .  S
O435        C436   1.258       .  A
C436        C710   1.465       .  S
Cr437       O440   1.755       .  S
Cr438       O440   1.771       .  S
Cr439       O440   1.772       .  S
O441       Cr459   1.988       .  S
O441        C449   1.263       .  A
O442       Cr459   2.001       .  S
O442        C443   1.265       .  A
C443        O444   1.259       .  A
C443       C1718   1.471       .  S
O444       Cr460   1.971       .  S
O445       Cr460   2.003       .  S
O445        C446   1.265       .  A
C446        O447   1.258       .  A
C446        C686   1.483       .  S
O447       Cr461   1.970       .  S
O448       Cr461   1.992       .  S
O448        C449   1.265       .  A
C449        C614   1.477       .  S
O450       Cr459   2.005       .  S
O450        C458   1.265       .  A
O451       Cr459   1.981       .  S
O451        C452   1.262       .  A
C452        O453   1.264       .  A
C452       C1094   1.473       .  S
O453       Cr460   1.990       .  S
O454       Cr460   1.973       .  S
O454        C455   1.258       .  A
C455        O456   1.264       .  A
C455        C797   1.464       .  S
O456       Cr461   1.992       .  S
O457       Cr461   1.975       .  S
O457        C458   1.258       .  A
C458        C638   1.483       .  S
Cr459       O462   1.770       .  S
Cr460       O462   1.772       .  S
Cr461       O462   1.759       .  S
O463       Cr481   1.992       .  S
O463        C471   1.264       .  A
O464       Cr481   1.975       .  S
O464        C465   1.257       .  A
C465        O466   1.264       .  A
C465        C605   1.480       .  S
O466       Cr482   2.012       .  S
O467       Cr482   1.964       .  S
O467        C468   1.260       .  A
C468        O469   1.266       .  A
C468        C974   1.473       .  S
O469       Cr483   1.999       .  S
O470       Cr483   1.987       .  S
O470        C471   1.261       .  A
C471        C557   1.471       .  S
O472       Cr481   1.975       .  S
O472        C480   1.261       .  A
O473       Cr481   2.007       .  S
O473        C474   1.269       .  A
C474        O475   1.261       .  A
C474        C701   1.482       .  S
O475       Cr482   1.976       .  S
O476       Cr482   1.998       .  S
O476        C477   1.264       .  A
C477        O478   1.260       .  A
C477       C1238   1.479       .  S
O478       Cr483   1.982       .  S
O479       Cr483   1.999       .  S
O479        C480   1.264       .  A
C480        C590   1.482       .  S
Cr481       O484   1.756       .  S
Cr482       O484   1.771       .  S
Cr483       O484   1.771       .  S
O485       Cr503   1.980       .  S
O485        C493   1.260       .  A
O486       Cr503   2.010       .  S
O486        C487   1.268       .  A
C487        O488   1.262       .  A
C487       C1214   1.473       .  S
O488       Cr504   1.970       .  S
O489       Cr504   2.014       .  S
O489        C490   1.266       .  A
C490        O491   1.260       .  A
C490        C566   1.489       .  S
O491       Cr505   1.977       .  S
O492       Cr505   1.992       .  S
O492        C493   1.264       .  A
C493        C542   1.465       .  S
O494       Cr503   2.007       .  S
O494        C502   1.264       .  A
O495       Cr503   1.982       .  S
O495        C496   1.259       .  A
C496        O497   1.264       .  A
C496       C2126   1.477       .  S
O497       Cr504   2.002       .  S
O498       Cr504   1.983       .  S
O498        C499   1.261       .  A
C499        O500   1.264       .  A
C499        C629   1.469       .  S
O500       Cr505   1.999       .  S
O501       Cr505   1.969       .  S
O501        C502   1.258       .  A
C502        C758   1.473       .  S
Cr503       O506   1.772       .  S
Cr504       O506   1.765       .  S
Cr505       O506   1.759       .  S
O507       Cr525   1.984       .  S
O507        C515   1.259       .  A
O508       Cr525   1.980       .  S
O508        C509   1.261       .  A
C509        O510   1.265       .  A
C509        C533   1.483       .  S
O510       Cr526   2.002       .  S
O511       Cr526   1.972       .  S
O511        C512   1.261       .  A
C512        O513   1.266       .  A
C512       C1958   1.464       .  S
O513       Cr527   2.007       .  S
O514       Cr527   1.990       .  S
O514        C515   1.260       .  A
C515        C734   1.463       .  S
O516       Cr525   1.974       .  S
O516        C524   1.261       .  A
O517       Cr525   1.992       .  S
O517        C518   1.262       .  A
C518        O519   1.262       .  A
C518        C581   1.471       .  S
O519       Cr526   1.995       .  S
O520       Cr526   1.989       .  S
O520        C521   1.261       .  A
C521        O522   1.261       .  A
C521        C854   1.480       .  S
O522       Cr527   1.982       .  S
O523       Cr527   2.011       .  S
O523        C524   1.269       .  A
C524        C662   1.482       .  S
Cr525       O528   1.760       .  S
Cr526       O528   1.763       .  S
Cr527       O528   1.770       .  S
C529        C530   1.400       .  A
C529        C534   1.397       .  A
C529        H539   1.084       .  S
C530        C535   1.475       .  S
C530        C531   1.407       .  A
C531        C532   1.399       .  A
C531        O536   1.372       .  S
C532        C533   1.406       .  A
C532        H537   1.083       .  S
C533        C534   1.415       .  A
C534        O538   1.371       .  S
C535        C540   1.408       .  A
C535        C544   1.401       .  A
O536        H552   0.992       .  S
O538        H549   0.992       .  S
C540        C541   1.404       .  A
C540        O545   1.371       .  S
C541        C542   1.404       .  A
C541        H546   1.084       .  S
C542        C543   1.404       .  A
C543        C544   1.391       .  A
C543        O547   1.372       .  S
C544        H548   1.084       .  S
O545        H550   0.992       .  S
O547        H551   0.992       .  S
C553        C554   1.405       .  A
C553        C558   1.405       .  A
C553        H563   1.083       .  S
C554        C559   1.481       .  S
C554        C555   1.408       .  A
C555        C556   1.395       .  A
C555        O560   1.372       .  S
C556        C557   1.401       .  A
C556        H561   1.084       .  S
C557        C558   1.408       .  A
C558        O562   1.371       .  S
C559        C564   1.407       .  A
C559        C568   1.401       .  A
O560        H576   0.992       .  S
O562        H573   0.991       .  S
C564        C565   1.401       .  A
C564        O569   1.372       .  S
C565        C566   1.408       .  A
C565        H570   1.083       .  S
C566        C567   1.415       .  A
C567        C568   1.400       .  A
C567        O571   1.372       .  S
C568        H572   1.084       .  S
O569        H574   0.992       .  S
O571        H575   0.992       .  S
C577        C578   1.403       .  A
C577        C582   1.405       .  A
C577        H587   1.083       .  S
C578        C583   1.472       .  S
C578        C579   1.404       .  A
C579        C580   1.393       .  A
C579        O584   1.372       .  S
C580        C581   1.403       .  A
C580        H585   1.084       .  S
C581        C582   1.409       .  A
C582        O586   1.371       .  S
C583        C588   1.403       .  A
C583        C592   1.400       .  A
O584        H600   0.992       .  S
O586        H597   0.991       .  S
C588        C589   1.400       .  A
C588        O593   1.371       .  S
C589        C590   1.409       .  A
C589        H594   1.083       .  S
C590        C591   1.413       .  A
C591        C592   1.397       .  A
C591        O595   1.372       .  S
C592        H596   1.084       .  S
O593        H598   0.992       .  S
O595        H599   0.992       .  S
C601        C602   1.401       .  A
C601        C606   1.398       .  A
C601        H611   1.084       .  S
C602        C607   1.473       .  S
C602        C603   1.406       .  A
C603        C604   1.401       .  A
C603        O608   1.372       .  S
C604        C605   1.406       .  A
C604        H609   1.083       .  S
C605        C606   1.411       .  A
C606        O610   1.371       .  S
C607        C612   1.404       .  A
C607        C616   1.404       .  A
O608        H624   0.992       .  S
O610        H621   0.992       .  S
C612        C613   1.389       .  A
C612        O617   1.373       .  S
C613        C614   1.404       .  A
C613        H618   1.084       .  S
C614        C615   1.412       .  A
C615        C616   1.407       .  A
C615        O619   1.371       .  S
C616        H620   1.083       .  S
O617        H622   0.992       .  S
O619        H623   0.992       .  S
C625        C626   1.401       .  A
C625        C630   1.396       .  A
C625        H635   1.084       .  S
C626        C631   1.473       .  S
C626        C627   1.406       .  A
C627        C628   1.401       .  A
C627        O632   1.371       .  S
C628        C629   1.404       .  A
C628        H633   1.084       .  S
C629        C630   1.407       .  A
C630        O634   1.373       .  S
C631        C636   1.403       .  A
C631        C640   1.402       .  A
O632        H648   0.992       .  S
O634        H645   0.992       .  S
C636        C637   1.397       .  A
C636        O641   1.372       .  S
C637        C638   1.408       .  A
C637        H642   1.083       .  S
C638        C639   1.414       .  A
C639        C640   1.400       .  A
C639        O643   1.371       .  S
C640        H644   1.084       .  S
O641        H646   0.992       .  S
O643        H647   0.992       .  S
C649        C650   1.407       .  A
C649        C654   1.401       .  A
C649        H659   1.083       .  S
C650        C655   1.483       .  S
C650        C651   1.411       .  A
C651        C652   1.397       .  A
C651        O656   1.373       .  S
C652        C653   1.399       .  A
C652        H657   1.084       .  S
C653        C654   1.405       .  A
C654        O658   1.371       .  S
C655        C660   1.408       .  A
C655        C664   1.404       .  A
O656        H672   0.992       .  S
O658        H669   0.992       .  S
C660        C661   1.399       .  A
C660        O665   1.371       .  S
C661        C662   1.406       .  A
C661        H666   1.083       .  S
C662        C663   1.411       .  A
C663        C664   1.399       .  A
C663        O667   1.372       .  S
C664        H668   1.084       .  S
O665        H670   0.991       .  S
O667        H671   0.992       .  S
C673        C674   1.403       .  A
C673        C678   1.397       .  A
C673        H683   1.083       .  S
C674        C679   1.481       .  S
C674        C675   1.410       .  A
C675        C676   1.400       .  A
C675        O680   1.371       .  S
C676        C677   1.403       .  A
C676        H681   1.084       .  S
C677        C678   1.406       .  A
C678        O682   1.373       .  S
C679        C684   1.407       .  A
C679        C688   1.403       .  A
O680        H696   0.992       .  S
O682        H693   0.991       .  S
C684        C685   1.401       .  A
C684        O689   1.373       .  S
C685        C686   1.408       .  A
C685        H690   1.083       .  S
C686        C687   1.412       .  A
C687        C688   1.395       .  A
C687        O691   1.372       .  S
C688        H692   1.084       .  S
O689        H694   0.992       .  S
O691        H695   0.992       .  S
C697        C698   1.401       .  A
C697        C702   1.405       .  A
C697        H707   1.083       .  S
C698        C703   1.473       .  S
C698        C699   1.405       .  A
C699        C700   1.393       .  A
C699        O704   1.372       .  S
C700        C701   1.405       .  A
C700        H705   1.083       .  S
C701        C702   1.415       .  A
C702        O706   1.371       .  S
C703        C708   1.407       .  A
C703        C712   1.402       .  A
O704        H720   0.992       .  S
O706        H717   0.992       .  S
C708        C709   1.400       .  A
C708        O713   1.371       .  S
C709        C710   1.402       .  A
C709        H714   1.084       .  S
C710        C711   1.405       .  A
C711        C712   1.399       .  A
C711        O715   1.371       .  S
C712        H716   1.084       .  S
O713        H718   0.992       .  S
O715        H719   0.992       .  S
C721        C722   1.402       .  A
C721        C726   1.395       .  A
C721        H731   1.084       .  S
C722        C727   1.479       .  S
C722        C723   1.408       .  A
C723        C724   1.402       .  A
C723        O728   1.371       .  S
C724        C725   1.405       .  A
C724        H729   1.084       .  S
C725        C726   1.408       .  A
C726        O730   1.373       .  S
C727        C732   1.409       .  A
C727        C736   1.403       .  A
O728        H744   0.992       .  S
O730        H741   0.992       .  S
C732        C733   1.400       .  A
C732        O737   1.372       .  S
C733        C734   1.400       .  A
C733        H738   1.084       .  S
C734        C735   1.407       .  A
C735        C736   1.398       .  A
C735        O739   1.372       .  S
C736        H740   1.084       .  S
O737        H742   0.992       .  S
O739        H743   0.992       .  S
C745        C746   1.403       .  A
C745        C750   1.401       .  A
C745        H755   1.084       .  S
C746        C751   1.475       .  S
C746        C747   1.408       .  A
C747        C748   1.395       .  A
C747        O752   1.373       .  S
C748        C749   1.401       .  A
C748        H753   1.084       .  S
C749        C750   1.409       .  A
C750        O754   1.371       .  S
C751        C756   1.407       .  A
C751        C760   1.402       .  A
O752        H768   0.992       .  S
O754        H765   0.992       .  S
C756        C757   1.395       .  A
C756        O761   1.371       .  S
C757        C758   1.403       .  A
C757        H762   1.084       .  S
C758        C759   1.411       .  A
C759        C760   1.399       .  A
C759        O763   1.372       .  S
C760        H764   1.084       .  S
O761        H766   0.992       .  S
O763        H767   0.992       .  S
C769        C770   1.399       .  A
C769        C774   1.397       .  A
C769        H779   1.084       .  S
C770        C775   1.478       .  S
C770        C771   1.406       .  A
C771        C772   1.407       .  A
C771        O776   1.371       .  S
C772        C773   1.409       .  A
C772        H777   1.083       .  S
C773        C774   1.411       .  A
C774        O778   1.372       .  S
C775        C780   1.405       .  A
C775        C784   1.404       .  A
O776        H792   0.992       .  S
O778        H789   0.991       .  S
C780        C781   1.398       .  A
C780        O785   1.372       .  S
C781        C782   1.407       .  A
C781        H786   1.084       .  S
C782        C783   1.410       .  A
C783        C784   1.405       .  A
C783        O787   1.370       .  S
C784        H788   1.083       .  S
O785        H790   0.992       .  S
O787        H791   0.991       .  S
C793        C794   1.405       .  A
C793        C798   1.400       .  A
C793        H803   1.084       .  S
C794        C799   1.473       .  S
C794        C795   1.408       .  A
C795        C796   1.393       .  A
C795        O800   1.372       .  S
C796        C797   1.400       .  A
C796        H801   1.084       .  S
C797        C798   1.406       .  A
C798        O802   1.371       .  S
C799        C804   1.408       .  A
C799        C808   1.401       .  A
O800        H816   0.992       .  S
O802        H813   0.992       .  S
C804        C805   1.400       .  A
C804        O809   1.371       .  S
C805        C806   1.403       .  A
C805        H810   1.084       .  S
C806        C807   1.406       .  A
C807        C808   1.394       .  A
C807        O811   1.372       .  S
C808        H812   1.084       .  S
O809        H814   0.991       .  S
O811        H815   0.992       .  S
C817        C818   1.399       .  A
C817        C822   1.395       .  A
C817        H827   1.084       .  S
C818        C823   1.470       .  S
C818        C819   1.405       .  A
C819        C820   1.396       .  A
C819        O824   1.372       .  S
C820        C821   1.407       .  A
C820        H825   1.083       .  S
C821        C822   1.414       .  A
C822        O826   1.372       .  S
C823        C828   1.405       .  A
C823        C832   1.402       .  A
O824        H840   0.992       .  S
O826        H837   0.992       .  S
C828        C829   1.391       .  A
C828        O833   1.372       .  S
C829        C830   1.404       .  A
C829        H834   1.084       .  S
C830        C831   1.410       .  A
C831        C832   1.400       .  A
C831        O835   1.372       .  S
C832        H836   1.084       .  S
O833        H838   0.992       .  S
O835        H839   0.992       .  S
C841        C842   1.400       .  A
C841        C846   1.397       .  A
C841        H851   1.084       .  S
C842        C847   1.472       .  S
C842        C843   1.405       .  A
C843        C844   1.396       .  A
C843        O848   1.372       .  S
C844        C845   1.406       .  A
C844        H849   1.083       .  S
C845        C846   1.413       .  A
C846        O850   1.372       .  S
C847        C852   1.406       .  A
C847        C856   1.398       .  A
O848        H864   0.992       .  S
O850        H861   0.992       .  S
C852        C853   1.401       .  A
C852        O857   1.372       .  S
C853        C854   1.406       .  A
C853        H858   1.083       .  S
C854        C855   1.415       .  A
C855        C856   1.393       .  A
C855        O859   1.372       .  S
C856        H860   1.084       .  S
O857        H862   0.992       .  S
O859        H863   0.992       .  S
C865        C866   1.403       .  A
C865        C870   1.394       .  A
C865        H875   1.084       .  S
C866        C871   1.476       .  S
C866        C867   1.406       .  A
C867        C868   1.397       .  A
C867        O872   1.372       .  S
C868        C869   1.407       .  A
C868        H873   1.083       .  S
C869        C870   1.409       .  A
C870        O874   1.371       .  S
C871        C876   1.404       .  A
C871        C880   1.405       .  A
O872        H888   0.992       .  S
O874        H885   0.992       .  S
C876        C877   1.392       .  A
C876        O881   1.372       .  S
C877        C878   1.408       .  A
C877        H882   1.083       .  S
C878        C879   1.410       .  A
C879        C880   1.400       .  A
C879        O883   1.372   1_556  S
C880        H884   1.083       .  S
O881        H886   0.992       .  S
O883        H887   0.992       .  S
C889        C890   1.404       .  A
C889        C894   1.404       .  A
C889        H899   1.083       .  S
C890        C895   1.478       .  S
C890        C891   1.406       .  A
C891        C892   1.398       .  A
C891        O896   1.372       .  S
C892        C893   1.403       .  A
C892        H897   1.084       .  S
C893        C894   1.408       .  A
C894        O898   1.372       .  S
C895        C900   1.405       .  A
C895        C904   1.404       .  A
O896        H912   0.992       .  S
O898        H909   0.992       .  S
C900        C901   1.395       .  A
C900        O905   1.372       .  S
C901        C902   1.405       .  A
C901        H906   1.084       .  S
C902        C903   1.413       .  A
C903        C904   1.406       .  A
C903        O907   1.371       .  S
C904        H908   1.083       .  S
O905        H910   0.992       .  S
O907        H911   0.992       .  S
C913        C914   1.399       .  A
C913        C918   1.400       .  A
C913        H923   1.084   1_455  S
C914        C919   1.471   1_455  S
C914        C915   1.405       .  A
C915        C916   1.398       .  A
C915        O920   1.372       .  S
C916        C917   1.407       .  A
C916        H921   1.084       .  S
C917        C918   1.415       .  A
C918        O922   1.371   1_455  S
C919        C924   1.403       .  A
C919        C928   1.402   1_655  A
O920        H936   0.992       .  S
O922        H933   0.992   1_655  S
C924        C925   1.390       .  A
C924        O929   1.372       .  S
C925        C926   1.405       .  A
C925        H930   1.084       .  S
C926        C927   1.412       .  A
C927        C928   1.406   1_655  A
C927        O931   1.371       .  S
C928        H932   1.083       .  S
O929        H934   0.992       .  S
O931        H935   0.992       .  S
C937        C938   1.403       .  A
C937        C942   1.394       .  A
C937        H947   1.083       .  S
C938        C943   1.480       .  S
C938        C939   1.407       .  A
C939        C940   1.399       .  A
C939        O944   1.371       .  S
C940        C941   1.407       .  A
C940        H945   1.083       .  S
C941        C942   1.413       .  A
C942        O946   1.372       .  S
C943        C948   1.408       .  A
C943        C952   1.405       .  A
O944        H960   0.992       .  S
O946        H957   0.992       .  S
C948        C949   1.399       .  A
C948        O953   1.373       .  S
C949        C950   1.402       .  A
C949        H954   1.084       .  S
C950        C951   1.407       .  A
C951        C952   1.397       .  A
C951        O955   1.372       .  S
C952        H956   1.083       .  S
O953        H958   0.992       .  S
O955        H959   0.992       .  S
C961        C962   1.398       .  A
C961        C966   1.393       .  A
C961        H971   1.084       .  S
C962        C967   1.461       .  S
C962        C963   1.403       .  A
C963        C964   1.393       .  A
C963        O968   1.372       .  S
C964        C965   1.403       .  A
C964        H969   1.084       .  S
C965        C966   1.411       .  A
C966        O970   1.372       .  S
C967        C972   1.402       .  A
C967        C976   1.398       .  A
O968        H984   0.992       .  S
O970        H981   0.992       .  S
C972        C973   1.392       .  A
C972        O977   1.372       .  S
C973        C974   1.407       .  A
C973        H978   1.083       .  S
C974        C975   1.413       .  A
C975        C976   1.394       .  A
C975        O979   1.372       .  S
C976        H980   1.084       .  S
O977        H982   0.992       .  S
O979        H983   0.992       .  S
C985        C986   1.402       .  A
C985        C990   1.396       .  A
C985        H995   1.084       .  S
C986        C991   1.475   1_554  S
C986        C987   1.407   1_554  A
C987        C988   1.402   1_556  A
C987        O992   1.371       .  S
C988        C989   1.403       .  A
C988        H993   1.084   1_554  S
C989        C990   1.406       .  A
C990        O994   1.372       .  S
C991        C996   1.408   1_556  A
C991       C1000   1.400       .  A
O992       H1008   0.992       .  S
O994       H1005   0.992       .  S
C996        C997   1.404   1_554  A
C996       O1001   1.371       .  S
C997        C998   1.403       .  A
C997       H1002   1.083   1_556  S
C998        C999   1.409       .  A
C999       C1000   1.395       .  A
C999       O1003   1.372       .  S
C1000      H1004   1.084       .  S
O1001      H1006   0.992       .  S
O1003      H1007   0.991       .  S
C1009      C1010   1.407       .  A
C1009      C1014   1.405       .  A
C1009      H1019   1.083       .  S
C1010      C1015   1.485       .  S
C1010      C1011   1.409       .  A
C1011      C1012   1.396       .  A
C1011      O1016   1.372       .  S
C1012      C1013   1.401       .  A
C1012      H1017   1.084       .  S
C1013      C1014   1.407       .  A
C1014      O1018   1.371       .  S
C1015      C1020   1.409       .  A
C1015      C1024   1.407       .  A
O1016      H1032   0.992       .  S
O1018      H1029   0.992       .  S
C1020      C1021   1.398       .  A
C1020      O1025   1.372       .  S
C1021      C1022   1.403       .  A
C1021      H1026   1.084       .  S
C1022      C1023   1.406       .  A
C1023      C1024   1.404       .  A
C1023      O1027   1.371       .  S
C1024      H1028   1.083       .  S
O1025      H1030   0.992       .  S
O1027      H1031   0.992       .  S
C1033      C1034   1.403       .  A
C1033      C1038   1.404       .  A
C1033      H1043   1.083       .  S
C1034      C1039   1.474       .  S
C1034      C1035   1.406       .  A
C1035      C1036   1.392       .  A
C1035      O1040   1.373       .  S
C1036      C1037   1.403       .  A
C1036      H1041   1.084       .  S
C1037      C1038   1.411       .  A
C1038      O1042   1.371       .  S
C1039      C1044   1.406       .  A
C1039      C1048   1.402   1_554  A
O1040      H1056   0.992       .  S
O1042      H1053   0.992       .  S
C1044      C1045   1.396       .  A
C1044      O1049   1.371       .  S
C1045      C1046   1.403       .  A
C1045      H1050   1.084       .  S
C1046      C1047   1.410   1_554  A
C1047      C1048   1.400       .  A
C1047      O1051   1.371       .  S
C1048      H1052   1.084       .  S
O1049      H1054   0.992       .  S
O1051      H1055   0.992       .  S
C1057      C1058   1.405       .  A
C1057      C1062   1.406       .  A
C1057      H1067   1.083       .  S
C1058      C1063   1.477       .  S
C1058      C1059   1.405       .  A
C1059      C1060   1.389       .  A
C1059      O1064   1.374       .  S
C1060      C1061   1.407       .  A
C1060      H1065   1.084       .  S
C1061      C1062   1.410       .  A
C1062      O1066   1.371       .  S
C1063      C1068   1.408       .  A
C1063      C1072   1.403       .  A
O1064      H1080   0.992       .  S
O1066      H1077   0.992       .  S
C1068      C1069   1.394       .  A
C1068      O1073   1.372       .  S
C1069      C1070   1.402       .  A
C1069      H1074   1.084       .  S
C1070      C1071   1.409       .  A
C1071      C1072   1.401       .  A
C1071      O1075   1.371   1_556  S
C1072      H1076   1.084       .  S
O1073      H1078   0.991       .  S
O1075      H1079   0.992       .  S
C1081      C1082   1.403       .  A
C1081      C1086   1.392       .  A
C1081      H1091   1.082       .  S
C1082      C1087   1.481       .  S
C1082      C1083   1.409       .  A
C1083      C1084   1.397       .  A
C1083      O1088   1.371       .  S
C1084      C1085   1.405       .  A
C1084      H1089   1.083       .  S
C1085      C1086   1.411       .  A
C1086      O1090   1.372       .  S
C1087      C1092   1.408       .  A
C1087      C1096   1.406       .  A
O1088      H1104   0.992       .  S
O1090      H1101   0.992       .  S
C1092      C1093   1.396       .  A
C1092      O1097   1.374       .  S
C1093      C1094   1.405       .  A
C1093      H1098   1.084       .  S
C1094      C1095   1.407       .  A
C1095      C1096   1.398       .  A
C1095      O1099   1.371       .  S
C1096      H1100   1.083       .  S
O1097      H1102   0.992       .  S
O1099      H1103   0.992       .  S
C1105      C1106   1.400       .  A
C1105      C1110   1.391       .  A
C1105      H1115   1.084       .  S
C1106      C1111   1.469       .  S
C1106      C1107   1.406       .  A
C1107      C1108   1.401       .  A
C1107      O1112   1.372       .  S
C1108      C1109   1.405       .  A
C1108      H1113   1.084       .  S
C1109      C1110   1.408       .  A
C1110      O1114   1.372       .  S
C1111      C1116   1.404       .  A
C1111      C1120   1.400       .  A
O1112      H1128   0.992       .  S
O1114      H1125   0.991       .  S
C1116      C1117   1.388       .  A
C1116      O1121   1.373       .  S
C1117      C1118   1.403       .  A
C1117      H1122   1.083       .  S
C1118      C1119   1.415       .  A
C1119      C1120   1.403       .  A
C1119      O1123   1.371       .  S
C1120      H1124   1.083       .  S
O1121      H1126   0.992       .  S
O1123      H1127   0.992       .  S
C1129      C1130   1.402       .  A
C1129      C1134   1.401       .  A
C1129      H1139   1.084       .  S
C1130      C1135   1.478       .  S
C1130      C1131   1.406       .  A
C1131      C1132   1.397       .  A
C1131      O1136   1.371       .  S
C1132      C1133   1.406       .  A
C1132      H1137   1.083       .  S
C1133      C1134   1.414       .  A
C1134      O1138   1.372       .  S
C1135      C1140   1.407       .  A
C1135      C1144   1.400       .  A
O1136      H1152   0.992       .  S
O1138      H1149   0.992       .  S
C1140      C1141   1.404       .  A
C1140      O1145   1.371       .  S
C1141      C1142   1.407       .  A
C1141      H1146   1.083       .  S
C1142      C1143   1.414       .  A
C1143      C1144   1.394       .  A
C1143      O1147   1.372       .  S
C1144      H1148   1.084       .  S
O1145      H1150   0.992       .  S
O1147      H1151   0.992       .  S
C1153      C1154   1.402   1_455  A
C1153      C1158   1.402       .  A
C1153      H1163   1.084       .  S
C1154      C1159   1.475       .  S
C1154      C1155   1.405       .  A
C1155      C1156   1.396       .  A
C1155      O1160   1.373       .  S
C1156      C1157   1.406   1_655  A
C1156      H1161   1.083       .  S
C1157      C1158   1.414       .  A
C1158      O1162   1.371       .  S
C1159      C1164   1.406   1_655  A
C1159      C1168   1.405       .  A
O1160      H1176   0.992       .  S
O1162      H1173   0.992       .  S
C1164      C1165   1.393       .  A
C1164      O1169   1.372       .  S
C1165      C1166   1.401   1_455  A
C1165      H1170   1.084       .  S
C1166      C1167   1.408       .  A
C1167      C1168   1.404       .  A
C1167      O1171   1.372       .  S
C1168      H1172   1.083       .  S
O1169      H1174   0.992       .  S
O1171      H1175   0.992       .  S
C1177      C1178   1.401       .  A
C1177      C1182   1.389       .  A
C1177      H1187   1.084       .  S
C1178      C1183   1.471       .  S
C1178      C1179   1.409       .  A
C1179      C1180   1.402       .  A
C1179      O1184   1.371       .  S
C1180      C1181   1.402       .  A
C1180      H1185   1.083       .  S
C1181      C1182   1.405       .  A
C1182      O1186   1.372       .  S
C1183      C1188   1.406       .  A
C1183      C1192   1.400       .  A
O1184      H1200   0.992       .  S
O1186      H1197   0.991       .  S
C1188      C1189   1.399       .  A
C1188      O1193   1.373       .  S
C1189      C1190   1.406       .  A
C1189      H1194   1.083       .  S
C1190      C1191   1.413       .  A
C1191      C1192   1.393       .  A
C1191      O1195   1.372       .  S
C1192      H1196   1.084       .  S
O1193      H1198   0.992       .  S
O1195      H1199   0.992       .  S
C1201      C1202   1.405       .  A
C1201      C1206   1.398       .  A
C1201      H1211   1.084       .  S
C1202      C1207   1.478       .  S
C1202      C1203   1.408       .  A
C1203      C1204   1.398       .  A
C1203      O1208   1.374       .  S
C1204      C1205   1.400       .  A
C1204      H1209   1.084       .  S
C1205      C1206   1.404       .  A
C1206      O1210   1.372       .  S
C1207      C1212   1.410       .  A
C1207      C1216   1.402       .  A
O1208      H1224   0.992       .  S
O1210      H1221   0.992       .  S
C1212      C1213   1.395       .  A
C1212      O1217   1.372       .  S
C1213      C1214   1.402       .  A
C1213      H1218   1.084       .  S
C1214      C1215   1.410       .  A
C1215      C1216   1.399       .  A
C1215      O1219   1.372       .  S
C1216      H1220   1.084       .  S
O1217      H1222   0.992       .  S
O1219      H1223   0.992       .  S
C1225      C1226   1.399       .  A
C1225      C1230   1.400       .  A
C1225      H1235   1.084       .  S
C1226      C1231   1.469       .  S
C1226      C1227   1.403       .  A
C1227      C1228   1.396       .  A
C1227      O1232   1.372       .  S
C1228      C1229   1.405       .  A
C1228      H1233   1.083       .  S
C1229      C1230   1.413       .  A
C1230      O1234   1.372       .  S
C1231      C1236   1.402       .  A
C1231      C1240   1.401       .  A
O1232      H1248   0.992       .  S
O1234      H1245   0.992       .  S
C1236      C1237   1.393       .  A
C1236      O1241   1.372       .  S
C1237      C1238   1.406       .  A
C1237      H1242   1.083       .  S
C1238      C1239   1.413       .  A
C1239      C1240   1.403       .  A
C1239      O1243   1.372       .  S
C1240      H1244   1.083       .  S
O1241      H1246   0.992       .  S
O1243      H1247   0.992       .  S
C1249      C1250   1.401       .  A
C1249      C1254   1.399       .  A
C1249      H1259   1.084       .  S
C1250      C1255   1.475       .  S
C1250      C1251   1.406       .  A
C1251      C1252   1.398       .  A
C1251      O1256   1.372       .  S
C1252      C1253   1.405       .  A
C1252      H1257   1.084       .  S
C1253      C1254   1.412       .  A
C1254      O1258   1.371       .  S
C1255      C1260   1.405       .  A
C1255      C1264   1.401       .  A
O1256      H1272   0.992       .  S
O1258      H1269   0.992       .  S
C1260      C1261   1.395       .  A
C1260      O1265   1.372       .  S
C1261      C1262   1.407       .  A
C1261      H1266   1.083       .  S
C1262      C1263   1.414       .  A
C1263      C1264   1.401       .  A
C1263      O1267   1.371       .  S
C1264      H1268   1.084       .  S
O1265      H1270   0.992       .  S
O1267      H1271   0.992       .  S
C1273      C1274   1.401       .  A
C1273      C1278   1.397       .  A
C1273      H1283   1.083       .  S
C1274      C1279   1.468       .  S
C1274      C1275   1.405       .  A
C1275      C1276   1.392       .  A
C1275      O1280   1.372       .  S
C1276      C1277   1.404       .  A
C1276      H1281   1.084   1_554  S
C1277      C1278   1.410       .  A
C1278      O1282   1.371       .  S
C1279      C1284   1.404       .  A
C1279      C1288   1.398       .  A
O1280      H1296   0.992       .  S
O1282      H1293   0.992       .  S
C1284      C1285   1.399       .  A
C1284      O1289   1.372       .  S
C1285      C1286   1.408       .  A
C1285      H1290   1.083       .  S
C1286      C1287   1.414       .  A
C1287      C1288   1.390       .  A
C1287      O1291   1.372       .  S
C1288      H1292   1.084       .  S
O1289      H1294   0.992       .  S
O1291      H1295   0.992       .  S
C1297      C1298   1.398       .  A
C1297      C1302   1.393       .  A
C1297      H1307   1.084       .  S
C1298      C1303   1.468       .  S
C1298      C1299   1.405       .  A
C1299      C1300   1.396       .  A
C1299      O1304   1.372       .  S
C1300      C1301   1.407       .  A
C1300      H1305   1.083       .  S
C1301      C1302   1.414       .  A
C1302      O1306   1.372       .  S
C1303      C1308   1.406       .  A
C1303      C1312   1.400       .  A
O1304      H1320   0.992       .  S
O1306      H1317   0.992       .  S
C1308      C1309   1.397       .  A
C1308      O1313   1.372       .  S
C1309      C1310   1.404       .  A
C1309      H1314   1.084       .  S
C1310      C1311   1.410       .  A
C1311      C1312   1.393       .  A
C1311      O1315   1.372       .  S
C1312      H1316   1.084       .  S
O1313      H1318   0.992       .  S
O1315      H1319   0.992       .  S
C1321      C1322   1.406       .  A
C1321      C1326   1.404       .  A
C1321      H1331   1.083       .  S
C1322      C1327   1.486       .  S
C1322      C1323   1.410       .  A
C1323      C1324   1.397       .  A
C1323      O1328   1.372       .  S
C1324      C1325   1.402       .  A
C1324      H1329   1.084       .  S
C1325      C1326   1.409       .  A
C1326      O1330   1.372       .  S
C1327      C1332   1.409       .  A
C1327      C1336   1.407       .  A
O1328      H1344   0.992       .  S
O1330      H1341   0.991       .  S
C1332      C1333   1.398       .  A
C1332      O1337   1.372       .  S
C1333      C1334   1.402       .  A
C1333      H1338   1.084   1_545  S
C1334      C1335   1.407       .  A
C1335      C1336   1.404       .  A
C1335      O1339   1.372       .  S
C1336      H1340   1.083       .  S
O1337      H1342   0.992       .  S
O1339      H1343   0.991       .  S
C1345      C1346   1.399       .  A
C1345      C1350   1.398       .  A
C1345      H1355   1.084       .  S
C1346      C1351   1.473       .  S
C1346      C1347   1.407       .  A
C1347      C1348   1.396       .  A
C1347      O1352   1.372       .  S
C1348      C1349   1.405       .  A
C1348      H1353   1.083       .  S
C1349      C1350   1.415       .  A
C1350      O1354   1.371       .  S
C1351      C1356   1.408   1_554  A
C1351      C1360   1.404       .  A
O1352      H1368   0.992       .  S
O1354      H1365   0.992       .  S
C1356      C1357   1.393       .  A
C1356      O1361   1.372       .  S
C1357      C1358   1.398       .  A
C1357      H1362   1.084       .  S
C1358      C1359   1.405   1_556  A
C1359      C1360   1.400       .  A
C1359      O1363   1.371       .  S
C1360      H1364   1.083       .  S
O1361      H1366   0.992       .  S
O1363      H1367   0.992       .  S
C1369      C1370   1.402       .  A
C1369      C1374   1.400       .  A
C1369      H1379   1.084       .  S
C1370      C1375   1.476       .  S
C1370      C1371   1.405       .  A
C1371      C1372   1.399       .  A
C1371      O1376   1.371       .  S
C1372      C1373   1.409       .  A
C1372      H1377   1.083       .  S
C1373      C1374   1.413       .  A
C1374      O1378   1.372       .  S
C1375      C1380   1.407       .  A
C1375      C1384   1.402       .  A
O1376      H1392   0.992       .  S
O1378      H1389   0.992       .  S
C1380      C1381   1.404       .  A
C1380      O1385   1.372       .  S
C1381      C1382   1.405       .  A
C1381      H1386   1.083       .  S
C1382      C1383   1.408       .  A
C1383      C1384   1.395       .  A
C1383      O1387   1.372       .  S
C1384      H1388   1.084       .  S
O1385      H1390   0.992       .  S
O1387      H1391   0.992       .  S
C1393      C1394   1.398       .  A
C1393      C1398   1.398       .  A
C1393      H1403   1.084       .  S
C1394      C1399   1.464       .  S
C1394      C1395   1.404       .  A
C1395      C1396   1.389       .  A
C1395      O1400   1.372       .  S
C1396      C1397   1.404       .  A
C1396      H1401   1.083       .  S
C1397      C1398   1.416       .  A
C1398      O1402   1.371       .  S
C1399      C1404   1.404       .  A
C1399      C1408   1.399       .  A
O1400      H1416   0.992       .  S
O1402      H1413   0.992       .  S
C1404      C1405   1.397       .  A
C1404      O1409   1.371       .  S
C1405      C1406   1.404       .  A
C1405      H1410   1.084       .  S
C1406      C1407   1.408       .  A
C1407      C1408   1.390       .  A
C1407      O1411   1.372       .  S
C1408      H1412   1.084       .  S
O1409      H1414   0.992       .  S
O1411      H1415   0.992       .  S
C1417      C1418   1.401   1_545  A
C1417      C1422   1.393       .  A
C1417      H1427   1.084       .  S
C1418      C1423   1.472       .  S
C1418      C1419   1.406       .  A
C1419      C1420   1.403       .  A
C1419      O1424   1.371       .  S
C1420      C1421   1.404   1_565  A
C1420      H1425   1.084       .  S
C1421      C1422   1.408       .  A
C1422      O1426   1.372       .  S
C1423      C1428   1.403       .  A
C1423      C1432   1.401       .  A
O1424      H1440   0.992       .  S
O1426      H1437   0.992       .  S
C1428      C1429   1.396       .  A
C1428      O1433   1.372   1_565  S
C1429      C1430   1.408       .  A
C1429      H1434   1.083       .  S
C1430      C1431   1.412       .  A
C1431      C1432   1.400       .  A
C1431      O1435   1.372       .  S
C1432      H1436   1.084       .  S
O1433      H1438   0.992       .  S
O1435      H1439   0.992       .  S
C1441      C1442   1.397       .  A
C1441      C1446   1.393       .  A
C1441      H1451   1.084   1_556  S
C1442      C1447   1.471       .  S
C1442      C1443   1.405       .  A
C1443      C1444   1.401       .  A
C1443      O1448   1.372       .  S
C1444      C1445   1.408       .  A
C1444      H1449   1.083       .  S
C1445      C1446   1.415       .  A
C1446      O1450   1.372       .  S
C1447      C1452   1.404   1_556  A
C1447      C1456   1.401       .  A
O1448      H1464   0.992       .  S
O1450      H1461   0.992   1_556  S
C1452      C1453   1.398       .  A
C1452      O1457   1.372       .  S
C1453      C1454   1.407       .  A
C1453      H1458   1.084       .  S
C1454      C1455   1.411   1_554  A
C1455      C1456   1.397       .  A
C1455      O1459   1.371       .  S
C1456      H1460   1.084       .  S
O1457      H1462   0.992       .  S
O1459      H1463   0.992       .  S
C1465      C1466   1.405       .  A
C1465      C1470   1.401       .  A
C1465      H1475   1.083       .  S
C1466      C1471   1.482       .  S
C1466      C1467   1.409       .  A
C1467      C1468   1.396       .  A
C1467      O1472   1.372       .  S
C1468      C1469   1.402       .  A
C1468      H1473   1.084       .  S
C1469      C1470   1.408       .  A
C1470      O1474   1.371       .  S
C1471      C1476   1.409       .  A
C1471      C1480   1.402       .  A
O1472      H1488   0.991       .  S
O1474      H1485   0.992       .  S
C1476      C1477   1.406       .  A
C1476      O1481   1.372       .  S
C1477      C1478   1.406       .  A
C1477      H1482   1.083       .  S
C1478      C1479   1.411       .  A
C1479      C1480   1.391       .  A
C1479      O1483   1.373   1_556  S
C1480      H1484   1.084       .  S
O1481      H1486   0.992       .  S
O1483      H1487   0.992       .  S
C1489      C1490   1.401   1_545  A
C1489      C1494   1.400   1_545  A
C1489      H1499   1.084       .  S
C1490      C1495   1.467   1_565  S
C1490      C1491   1.407       .  A
C1491      C1492   1.393       .  A
C1491      O1496   1.372       .  S
C1492      C1493   1.399       .  A
C1492      H1497   1.084       .  S
C1493      C1494   1.409       .  A
C1494      O1498   1.372   1_565  S
C1495      C1500   1.405       .  A
C1495      C1504   1.400       .  A
O1496      H1512   0.991       .  S
O1498      H1509   0.992       .  S
C1500      C1501   1.400       .  A
C1500      O1505   1.372   1_545  S
C1501      C1502   1.404       .  A
C1501      H1506   1.084       .  S
C1502      C1503   1.408       .  A
C1503      C1504   1.394       .  A
C1503      O1507   1.373       .  S
C1504      H1508   1.084       .  S
O1505      H1510   0.992       .  S
O1507      H1511   0.992       .  S
C1513      C1514   1.401       .  A
C1513      C1518   1.399       .  A
C1513      H1523   1.084       .  S
C1514      C1519   1.477       .  S
C1514      C1515   1.407       .  A
C1515      C1516   1.397       .  A
C1515      O1520   1.372       .  S
C1516      C1517   1.405       .  A
C1516      H1521   1.084       .  S
C1517      C1518   1.414       .  A
C1518      O1522   1.371       .  S
C1519      C1524   1.408       .  A
C1519      C1528   1.405       .  A
O1520      H1536   0.992       .  S
O1522      H1533   0.992       .  S
C1524      C1525   1.394       .  A
C1524      O1529   1.372       .  S
C1525      C1526   1.400       .  A
C1525      H1530   1.084       .  S
C1526      C1527   1.407       .  A
C1527      C1528   1.402       .  A
C1527      O1531   1.371       .  S
C1528      H1532   1.083       .  S
O1529      H1534   0.992       .  S
O1531      H1535   0.992       .  S
C1537      C1538   1.399       .  A
C1537      C1542   1.397       .  A
C1537      H1547   1.084       .  S
C1538      C1543   1.480       .  S
C1538      C1539   1.409       .  A
C1539      C1540   1.400       .  A
C1539      O1544   1.372       .  S
C1540      C1541   1.405       .  A
C1540      H1545   1.083       .  S
C1541      C1542   1.418       .  A
C1542      O1546   1.371       .  S
C1543      C1548   1.408       .  A
C1543      C1552   1.403       .  A
O1544      H1560   0.992       .  S
O1546      H1557   0.992       .  S
C1548      C1549   1.397       .  A
C1548      O1553   1.372       .  S
C1549      C1550   1.404       .  A
C1549      H1554   1.084       .  S
C1550      C1551   1.409       .  A
C1551      C1552   1.400       .  A
C1551      O1555   1.371       .  S
C1552      H1556   1.084       .  S
O1553      H1558   0.992       .  S
O1555      H1559   0.992       .  S
C1561      C1562   1.403       .  A
C1561      C1566   1.406       .  A
C1561      H1571   1.083       .  S
C1562      C1567   1.474       .  S
C1562      C1563   1.404       .  A
C1563      C1564   1.393       .  A
C1563      O1568   1.373       .  S
C1564      C1565   1.405       .  A
C1564      H1569   1.084       .  S
C1565      C1566   1.412       .  A
C1566      O1570   1.371       .  S
C1567      C1572   1.405       .  A
C1567      C1576   1.405       .  A
O1568      H1584   0.992       .  S
O1570      H1581   0.992       .  S
C1572      C1573   1.394       .  A
C1572      O1577   1.372       .  S
C1573      C1574   1.401       .  A
C1573      H1578   1.084       .  S
C1574      C1575   1.408       .  A
C1575      C1576   1.406       .  A
C1575      O1579   1.372       .  S
C1576      H1580   1.083       .  S
O1577      H1582   0.992       .  S
O1579      H1583   0.992       .  S
C1585      C1586   1.403       .  A
C1585      C1590   1.400       .  A
C1585      H1595   1.083       .  S
C1586      C1591   1.476       .  S
C1586      C1587   1.405       .  A
C1587      C1588   1.395       .  A
C1587      O1592   1.372       .  S
C1588      C1589   1.408       .  A
C1588      H1593   1.083       .  S
C1589      C1590   1.411       .  A
C1590      O1594   1.372       .  S
C1591      C1596   1.405       .  A
C1591      C1600   1.403       .  A
O1592      H1608   0.992       .  S
O1594      H1605   0.992       .  S
C1596      C1597   1.401       .  A
C1596      O1601   1.372       .  S
C1597      C1598   1.407       .  A
C1597      H1602   1.083       .  S
C1598      C1599   1.409       .  A
C1599      C1600   1.395       .  A
C1599      O1603   1.373       .  S
C1600      H1604   1.084       .  S
O1601      H1606   0.992       .  S
O1603      H1607   0.992       .  S
C1609      C1610   1.403       .  A
C1609      C1614   1.396       .  A
C1609      H1619   1.084       .  S
C1610      C1615   1.487   1_556  S
C1610      C1611   1.409       .  A
C1611      C1612   1.406       .  A
C1611      O1616   1.373   1_556  S
C1612      C1613   1.409       .  A
C1612      H1617   1.083       .  S
C1613      C1614   1.412       .  A
C1614      O1618   1.372       .  S
C1615      C1620   1.411       .  A
C1615      C1624   1.405   1_554  A
O1616      H1632   0.992       .  S
O1618      H1629   0.992       .  S
C1620      C1621   1.401       .  A
C1620      O1625   1.371       .  S
C1621      C1622   1.404       .  A
C1621      H1626   1.084       .  S
C1622      C1623   1.409   1_554  A
C1623      C1624   1.398       .  A
C1623      O1627   1.372       .  S
C1624      H1628   1.084       .  S
O1625      H1630   0.992       .  S
O1627      H1631   0.991       .  S
C1633      C1634   1.401       .  A
C1633      C1638   1.394       .  A
C1633      H1643   1.083       .  S
C1634      C1639   1.483   1_554  S
C1634      C1635   1.410       .  A
C1635      C1636   1.402       .  A
C1635      O1640   1.372       .  S
C1636      C1637   1.407       .  A
C1636      H1641   1.083       .  S
C1637      C1638   1.413       .  A
C1638      O1642   1.372       .  S
C1639      C1644   1.408       .  A
C1639      C1648   1.402   1_556  A
O1640      H1656   0.992   1_554  S
O1642      H1653   0.992       .  S
C1644      C1645   1.400       .  A
C1644      O1649   1.373       .  S
C1645      C1646   1.406       .  A
C1645      H1650   1.083       .  S
C1646      C1647   1.415   1_556  A
C1647      C1648   1.400       .  A
C1647      O1651   1.372       .  S
C1648      H1652   1.084       .  S
O1649      H1654   0.992       .  S
O1651      H1655   0.992       .  S
C1657      C1658   1.403       .  A
C1657      C1662   1.402       .  A
C1657      H1667   1.084       .  S
C1658      C1663   1.476       .  S
C1658      C1659   1.405       .  A
C1659      C1660   1.395       .  A
C1659      O1664   1.373       .  S
C1660      C1661   1.408       .  A
C1660      H1665   1.083       .  S
C1661      C1662   1.412       .  A
C1662      O1666   1.371       .  S
C1663      C1668   1.406       .  A
C1663      C1672   1.405       .  A
O1664      H1680   0.992       .  S
O1666      H1677   0.992       .  S
C1668      C1669   1.393       .  A
C1668      O1673   1.372       .  S
C1669      C1670   1.401       .  A
C1669      H1674   1.084       .  S
C1670      C1671   1.408       .  A
C1671      C1672   1.404       .  A
C1671      O1675   1.372       .  S
C1672      H1676   1.083       .  S
O1673      H1678   0.992       .  S
O1675      H1679   0.992       .  S
C1681      C1682   1.400       .  A
C1681      C1686   1.394       .  A
C1681      H1691   1.084       .  S
C1682      C1687   1.471       .  S
C1682      C1683   1.408       .  A
C1683      C1684   1.401       .  A
C1683      O1688   1.372       .  S
C1684      C1685   1.402       .  A
C1684      H1689   1.084       .  S
C1685      C1686   1.409       .  A
C1686      O1690   1.373       .  S
C1687      C1692   1.405   1_455  A
C1687      C1696   1.403       .  A
O1688      H1704   0.992       .  S
O1690      H1701   0.992   1_455  S
C1692      C1693   1.393       .  A
C1692      O1697   1.372       .  S
C1693      C1694   1.403       .  A
C1693      H1698   1.084       .  S
C1694      C1695   1.408   1_655  A
C1695      C1696   1.399       .  A
C1695      O1699   1.372       .  S
C1696      H1700   1.084       .  S
O1697      H1702   0.992       .  S
O1699      H1703   0.992       .  S
C1705      C1706   1.400       .  A
C1705      C1710   1.398       .  A
C1705      H1715   1.084       .  S
C1706      C1711   1.471       .  S
C1706      C1707   1.403       .  A
C1707      C1708   1.398       .  A
C1707      O1712   1.372       .  S
C1708      C1709   1.409       .  A
C1708      H1713   1.083       .  S
C1709      C1710   1.414       .  A
C1710      O1714   1.371       .  S
C1711      C1716   1.405       .  A
C1711      C1720   1.401       .  A
O1712      H1728   0.992       .  S
O1714      H1725   0.992       .  S
C1716      C1717   1.396       .  A
C1716      O1721   1.372       .  S
C1717      C1718   1.404       .  A
C1717      H1722   1.084       .  S
C1718      C1719   1.410       .  A
C1719      C1720   1.399       .  A
C1719      O1723   1.372       .  S
C1720      H1724   1.084       .  S
O1721      H1726   0.992       .  S
O1723      H1727   0.992       .  S
C1729      C1730   1.399       .  A
C1729      C1734   1.392       .  A
C1729      H1739   1.084       .  S
C1730      C1735   1.465       .  S
C1730      C1731   1.407       .  A
C1731      C1732   1.395       .  A
C1731      O1736   1.371       .  S
C1732      C1733   1.401       .  A
C1732      H1737   1.084       .  S
C1733      C1734   1.408       .  A
C1734      O1738   1.373       .  S
C1735      C1740   1.404       .  A
C1735      C1744   1.399       .  A
O1736      H1752   0.992       .  S
O1738      H1749   0.992       .  S
C1740      C1741   1.395       .  A
C1740      O1745   1.372       .  S
C1741      C1742   1.406       .  A
C1741      H1746   1.084       .  S
C1742      C1743   1.411       .  A
C1743      C1744   1.393       .  A
C1743      O1747   1.372       .  S
C1744      H1748   1.084       .  S
O1745      H1750   0.992       .  S
O1747      H1751   0.992       .  S
C1753      C1754   1.402       .  A
C1753      C1758   1.397       .  A
C1753      H1763   1.084       .  S
C1754      C1759   1.478       .  S
C1754      C1755   1.408       .  A
C1755      C1756   1.403       .  A
C1755      O1760   1.371       .  S
C1756      C1757   1.404       .  A
C1756      H1761   1.084       .  S
C1757      C1758   1.408       .  A
C1758      O1762   1.372       .  S
C1759      C1764   1.407       .  A
C1759      C1768   1.401       .  A
O1760      H1776   0.992       .  S
O1762      H1773   0.992       .  S
C1764      C1765   1.401       .  A
C1764      O1769   1.371       .  S
C1765      C1766   1.407       .  A
C1765      H1770   1.083       .  S
C1766      C1767   1.411       .  A
C1767      C1768   1.397       .  A
C1767      O1771   1.371       .  S
C1768      H1772   1.084       .  S
O1769      H1774   0.992       .  S
O1771      H1775   0.992       .  S
C1777      C1778   1.399   1_565  A
C1777      C1782   1.395   1_565  A
C1777      H1787   1.084       .  S
C1778      C1783   1.469       .  S
C1778      C1779   1.404       .  A
C1779      C1780   1.396       .  A
C1779      O1784   1.372       .  S
C1780      C1781   1.406       .  A
C1780      H1785   1.083       .  S
C1781      C1782   1.413       .  A
C1782      O1786   1.372   1_545  S
C1783      C1788   1.403   1_545  A
C1783      C1792   1.400       .  A
O1784      H1800   0.992       .  S
O1786      H1797   0.992       .  S
C1788      C1789   1.395       .  A
C1788      O1793   1.372       .  S
C1789      C1790   1.406       .  A
C1789      H1794   1.083       .  S
C1790      C1791   1.413       .  A
C1791      C1792   1.396   1_565  A
C1791      O1795   1.372   1_565  S
C1792      H1796   1.084       .  S
O1793      H1798   0.992       .  S
O1795      H1799   0.992       .  S
C1801      C1802   1.399       .  A
C1801      C1806   1.394       .  A
C1801      H1811   1.084   1_545  S
C1802      C1807   1.467       .  S
C1802      C1803   1.404       .  A
C1803      C1804   1.399       .  A
C1803      O1808   1.371       .  S
C1804      C1805   1.404       .  A
C1804      H1809   1.084       .  S
C1805      C1806   1.409       .  A
C1806      O1810   1.372   1_545  S
C1807      C1812   1.404       .  A
C1807      C1816   1.400   1_545  A
O1808      H1824   0.992       .  S
O1810      H1821   0.992       .  S
C1812      C1813   1.397       .  A
C1812      O1817   1.371       .  S
C1813      C1814   1.405   1_545  A
C1813      H1818   1.084       .  S
C1814      C1815   1.410       .  A
C1815      C1816   1.395       .  A
C1815      O1819   1.372       .  S
C1816      H1820   1.084       .  S
O1817      H1822   0.992       .  S
O1819      H1823   0.992       .  S
C1825      C1826   1.401       .  A
C1825      C1830   1.396       .  A
C1825      H1835   1.084       .  S
C1826      C1831   1.482       .  S
C1826      C1827   1.410       .  A
C1827      C1828   1.407       .  A
C1827      O1832   1.372       .  S
C1828      C1829   1.404       .  A
C1828      H1833   1.083       .  S
C1829      C1830   1.409       .  A
C1830      O1834   1.372       .  S
C1831      C1836   1.409       .  A
C1831      C1840   1.405       .  A
O1832      H1848   0.992       .  S
O1834      H1845   0.991       .  S
C1836      C1837   1.400       .  A
C1836      O1841   1.372       .  S
C1837      C1838   1.402       .  A
C1837      H1842   1.084       .  S
C1838      C1839   1.407       .  A
C1839      C1840   1.403       .  A
C1839      O1843   1.371       .  S
C1840      H1844   1.084       .  S
O1841      H1846   0.992       .  S
O1843      H1847   0.991       .  S
C1849      C1850   1.399   1_455  A
C1849      C1854   1.393       .  A
C1849      H1859   1.084       .  S
C1850      C1855   1.471       .  S
C1850      C1851   1.407       .  A
C1851      C1852   1.400       .  A
C1851      O1856   1.372       .  S
C1852      C1853   1.403   1_655  A
C1852      H1857   1.083       .  S
C1853      C1854   1.410       .  A
C1854      O1858   1.373       .  S
C1855      C1860   1.406       .  A
C1855      C1864   1.400       .  A
O1856      H1872   0.992       .  S
O1858      H1869   0.991       .  S
C1860      C1861   1.392       .  A
C1860      O1865   1.372   1_655  S
C1861      C1862   1.405       .  A
C1861      H1866   1.084   1_655  S
C1862      C1863   1.414       .  A
C1863      C1864   1.400       .  A
C1863      O1867   1.371       .  S
C1864      H1868   1.084       .  S
O1865      H1870   0.992       .  S
O1867      H1871   0.992       .  S
C1873      C1874   1.407   1_565  A
C1873      C1878   1.397       .  A
C1873      H1883   1.083       .  S
C1874      C1879   1.478       .  S
C1874      C1875   1.408       .  A
C1875      C1876   1.392       .  A
C1875      O1880   1.372       .  S
C1876      C1877   1.402   1_545  A
C1876      H1881   1.084       .  S
C1877      C1878   1.405       .  A
C1878      O1882   1.372       .  S
C1879      C1884   1.406       .  A
C1879      C1888   1.404       .  A
O1880      H1896   0.991       .  S
O1882      H1893   0.992       .  S
C1884      C1885   1.397       .  A
C1884      O1889   1.373   1_545  S
C1885      C1886   1.407       .  A
C1885      H1890   1.083       .  S
C1886      C1887   1.411       .  A
C1887      C1888   1.394       .  A
C1887      O1891   1.372       .  S
C1888      H1892   1.083       .  S
O1889      H1894   0.992       .  S
O1891      H1895   0.992       .  S
C1897      C1898   1.402       .  A
C1897      C1902   1.403   1_655  A
C1897      H1907   1.084       .  S
C1898      C1903   1.470       .  S
C1898      C1899   1.401   1_655  A
C1899      C1900   1.392       .  A
C1899      O1904   1.372       .  S
C1900      C1901   1.408       .  A
C1900      H1905   1.083       .  S
C1901      C1902   1.413       .  A
C1902      O1906   1.371       .  S
C1903      C1908   1.403   1_655  A
C1903      C1912   1.400       .  A
O1904      H1920   0.992       .  S
O1906      H1917   0.992       .  S
C1908      C1909   1.394   1_455  A
C1908      O1913   1.372       .  S
C1909      C1910   1.409       .  A
C1909      H1914   1.084   1_655  S
C1910      C1911   1.412       .  A
C1911      C1912   1.400       .  A
C1911      O1915   1.371       .  S
C1912      H1916   1.084       .  S
O1913      H1918   0.992       .  S
O1915      H1919   0.992       .  S
C1921      C1922   1.402       .  A
C1921      C1926   1.403       .  A
C1921      H1931   1.083       .  S
C1922      C1927   1.471       .  S
C1922      C1923   1.407       .  A
C1923      C1924   1.389       .  A
C1923      O1928   1.373       .  S
C1924      C1925   1.401       .  A
C1924      H1929   1.084       .  S
C1925      C1926   1.411       .  A
C1926      O1930   1.371       .  S
C1927      C1932   1.408       .  A
C1927      C1936   1.399       .  A
O1928      H1944   0.992       .  S
O1930      H1941   0.992       .  S
C1932      C1933   1.400       .  A
C1932      O1937   1.371       .  S
C1933      C1934   1.402       .  A
C1933      H1938   1.084       .  S
C1934      C1935   1.411       .  A
C1935      C1936   1.395       .  A
C1935      O1939   1.373       .  S
C1936      H1940   1.084       .  S
O1937      H1942   0.991       .  S
O1939      H1943   0.991       .  S
C1945      C1946   1.403       .  A
C1945      C1950   1.394       .  A
C1945      H1955   1.083       .  S
C1946      C1951   1.482       .  S
C1946      C1947   1.412       .  A
C1947      C1948   1.398       .  A
C1947      O1952   1.372       .  S
C1948      C1949   1.401       .  A
C1948      H1953   1.084       .  S
C1949      C1950   1.408       .  A
C1950      O1954   1.372       .  S
C1951      C1956   1.412       .  A
C1951      C1960   1.405       .  A
O1952      H1968   0.992       .  S
O1954      H1965   0.991       .  S
C1956      C1957   1.398       .  A
C1956      O1961   1.373       .  S
C1957      C1958   1.399       .  A
C1957      H1962   1.084       .  S
C1958      C1959   1.405       .  A
C1959      C1960   1.397       .  A
C1959      O1963   1.372       .  S
C1960      H1964   1.083       .  S
O1961      H1966   0.992       .  S
O1963      H1967   0.992       .  S
C1969      C1970   1.401   1_655  A
C1969      C1974   1.405   1_655  A
C1969      H1979   1.083       .  S
C1970      C1975   1.472   1_455  S
C1970      C1971   1.405       .  A
C1971      C1972   1.393       .  A
C1971      O1976   1.373       .  S
C1972      C1973   1.404       .  A
C1972      H1977   1.084       .  S
C1973      C1974   1.412       .  A
C1974      O1978   1.370       .  S
C1975      C1980   1.405       .  A
C1975      C1984   1.402       .  A
O1976      H1992   0.992       .  S
O1978      H1989   0.992   1_455  S
C1980      C1981   1.395       .  A
C1980      O1985   1.373       .  S
C1981      C1982   1.402       .  A
C1981      H1986   1.084       .  S
C1982      C1983   1.410       .  A
C1983      C1984   1.403       .  A
C1983      O1987   1.372       .  S
C1984      H1988   1.083   1_655  S
O1985      H1990   0.992       .  S
O1987      H1991   0.992   1_655  S
C1993      C1994   1.398       .  A
C1993      C1998   1.397   1_565  A
C1993      H2003   1.084       .  S
C1994      C1999   1.471       .  S
C1994      C1995   1.405       .  A
C1995      C1996   1.401       .  A
C1995      O2000   1.372       .  S
C1996      C1997   1.406       .  A
C1996      H2001   1.083       .  S
C1997      C1998   1.415   1_565  A
C1998      O2002   1.372       .  S
C1999      C2004   1.402       .  A
C1999      C2008   1.402       .  A
O2000      H2016   0.992       .  S
O2002      H2013   0.992       .  S
C2004      C2005   1.392       .  A
C2004      O2009   1.372       .  S
C2005      C2006   1.407       .  A
C2005      H2010   1.083       .  S
C2006      C2007   1.414       .  A
C2007      C2008   1.404       .  A
C2007      O2011   1.372       .  S
C2008      H2012   1.084       .  S
O2009      H2014   0.992   1_565  S
O2011      H2015   0.992       .  S
C2017      C2018   1.401       .  A
C2017      C2022   1.397       .  A
C2017      H2027   1.084       .  S
C2018      C2023   1.477       .  S
C2018      C2019   1.409       .  A
C2019      C2020   1.398       .  A
C2019      O2024   1.373       .  S
C2020      C2021   1.404       .  A
C2020      H2025   1.083       .  S
C2021      C2022   1.415       .  A
C2022      O2026   1.372       .  S
C2023      C2028   1.408       .  A
C2023      C2032   1.402       .  A
O2024      H2040   0.992   1_565  S
O2026      H2037   0.992       .  S
C2028      C2029   1.399       .  A
C2028      O2033   1.371       .  S
C2029      C2030   1.403       .  A
C2029      H2034   1.084       .  S
C2030      C2031   1.408       .  A
C2031      C2032   1.394       .  A
C2031      O2035   1.372       .  S
C2032      H2036   1.084       .  S
O2033      H2038   0.991       .  S
O2035      H2039   0.992       .  S
C2041      C2042   1.399       .  A
C2041      C2046   1.394       .  A
C2041      H2051   1.084       .  S
C2042      C2047   1.471       .  S
C2042      C2043   1.405   1_455  A
C2043      C2044   1.403       .  A
C2043      O2048   1.371       .  S
C2044      C2045   1.406       .  A
C2044      H2049   1.083       .  S
C2045      C2046   1.411   1_655  A
C2046      O2050   1.372       .  S
C2047      C2052   1.407       .  A
C2047      C2056   1.400   1_455  A
O2048      H2064   0.992       .  S
O2050      H2061   0.991       .  S
C2052      C2053   1.401       .  A
C2052      O2057   1.371       .  S
C2053      C2054   1.401       .  A
C2053      H2058   1.084       .  S
C2054      C2055   1.407   1_455  A
C2055      C2056   1.396       .  A
C2055      O2059   1.372       .  S
C2056      H2060   1.084       .  S
O2057      H2062   0.992       .  S
O2059      H2063   0.992       .  S
C2065      C2066   1.400       .  A
C2065      C2070   1.397       .  A
C2065      H2075   1.084       .  S
C2066      C2071   1.483       .  S
C2066      C2067   1.409       .  A
C2067      C2068   1.409       .  A
C2067      O2072   1.371       .  S
C2068      C2069   1.408       .  A
C2068      H2073   1.083       .  S
C2069      C2070   1.413       .  A
C2070      O2074   1.372       .  S
C2071      C2076   1.407       .  A
C2071      C2080   1.407       .  A
O2072      H2088   0.992       .  S
O2074      H2085   0.992       .  S
C2076      C2077   1.398       .  A
C2076      O2081   1.372       .  S
C2077      C2078   1.405       .  A
C2077      H2082   1.084       .  S
C2078      C2079   1.407       .  A
C2079      C2080   1.406       .  A
C2079      O2083   1.371       .  S
C2080      H2084   1.083       .  S
O2081      H2086   0.992       .  S
O2083      H2087   0.992       .  S
C2089      C2090   1.401       .  A
C2089      C2094   1.397       .  A
C2089      H2099   1.084       .  S
C2090      C2095   1.471       .  S
C2090      C2091   1.403   1_455  A
C2091      C2092   1.395       .  A
C2091      O2096   1.372       .  S
C2092      C2093   1.409       .  A
C2092      H2097   1.083       .  S
C2093      C2094   1.412   1_655  A
C2094      O2098   1.371       .  S
C2095      C2100   1.405       .  A
C2095      C2104   1.400       .  A
O2096      H2112   0.992       .  S
O2098      H2109   0.992       .  S
C2100      C2101   1.395       .  A
C2100      O2105   1.372       .  S
C2101      C2102   1.404       .  A
C2101      H2106   1.083       .  S
C2102      C2103   1.413       .  A
C2103      C2104   1.397       .  A
C2103      O2107   1.372       .  S
C2104      H2108   1.084       .  S
O2105      H2110   0.992       .  S
O2107      H2111   0.992       .  S
C2113      C2114   1.402       .  A
C2113      C2118   1.398       .  A
C2113      H2123   1.084       .  S
C2114      C2119   1.482       .  S
C2114      C2115   1.407       .  A
C2115      C2116   1.401       .  A
C2115      O2120   1.372       .  S
C2116      C2117   1.409       .  A
C2116      H2121   1.083       .  S
C2117      C2118   1.413       .  A
C2118      O2122   1.372       .  S
C2119      C2124   1.407       .  A
C2119      C2128   1.405       .  A
O2120      H2136   0.992       .  S
O2122      H2133   0.992       .  S
C2124      C2125   1.396       .  A
C2124      O2129   1.373       .  S
C2125      C2126   1.403       .  A
C2125      H2130   1.084       .  S
C2126      C2127   1.410       .  A
C2127      C2128   1.403       .  A
C2127      O2131   1.372       .  S
C2128      H2132   1.083       .  S
O2129      H2134   0.992       .  S
O2131      H2135   0.992       .  S
C2137      C2138   1.400       .  A
C2137      C2142   1.394       .  A
C2137      H2147   1.084       .  S
C2138      C2143   1.472       .  S
C2138      C2139   1.404       .  A
C2139      C2140   1.400       .  A
C2139      O2144   1.373       .  S
C2140      C2141   1.408       .  A
C2140      H2145   1.083       .  S
C2141      C2142   1.413       .  A
C2142      O2146   1.372       .  S
C2143      C2148   1.406       .  A
C2143      C2152   1.402       .  A
O2144      H2160   0.992       .  S
O2146      H2157   0.992       .  S
C2148      C2149   1.393       .  A
C2148      O2153   1.372       .  S
C2149      C2150   1.405       .  A
C2149      H2154   1.084       .  S
C2150      C2151   1.412       .  A
C2151      C2152   1.399       .  A
C2151      O2155   1.371       .  S
C2152      H2156   1.084       .  S
O2153      H2158   0.992       .  S
O2155      H2159   0.992       .  S
C2161      C2162   1.403       .  A
C2161      C2166   1.400       .  A
C2161      H2171   1.083       .  S
C2162      C2167   1.471       .  S
C2162      C2163   1.407       .  A
C2163      C2164   1.392       .  A
C2163      O2168   1.373       .  S
C2164      C2165   1.402       .  A
C2164      H2169   1.084       .  S
C2165      C2166   1.407       .  A
C2166      O2170   1.371       .  S
C2167      C2172   1.406       .  A
C2167      C2176   1.401       .  A
O2168      H2184   0.992       .  S
O2170      H2181   0.992       .  S
C2172      C2173   1.394       .  A
C2172      O2177   1.372       .  S
C2173      C2174   1.403       .  A
C2173      H2178   1.083       .  S
C2174      C2175   1.411       .  A
C2175      C2176   1.397       .  A
C2175      O2179   1.372       .  S
C2176      H2180   1.084       .  S
O2177      H2182   0.991       .  S
O2179      H2183   0.991       .  S
C2185      C2186   1.405   1_565  A
C2185      C2190   1.404   1_565  A
C2185      H2195   1.083       .  S
C2186      C2191   1.478   1_545  S
C2186      C2187   1.408       .  A
C2187      C2188   1.395       .  A
C2187      O2192   1.373       .  S
C2188      C2189   1.401       .  A
C2188      H2193   1.084       .  S
C2189      C2190   1.409       .  A
C2190      O2194   1.372   1_545  S
C2191      C2196   1.406   1_565  A
C2191      C2200   1.402       .  A
O2192      H2208   0.992       .  S
O2194      H2205   0.992       .  S
C2196      C2197   1.401   1_545  A
C2196      O2201   1.373       .  S
C2197      C2198   1.407       .  A
C2197      H2202   1.083   1_565  S
C2198      C2199   1.410       .  A
C2199      C2200   1.398       .  A
C2199      O2203   1.371       .  S
C2200      H2204   1.084       .  S
O2201      H2206   0.992       .  S
O2203      H2207   0.992       .  S
C2209      C2210   1.399       .  A
C2209      C2214   1.396       .  A
C2209      H2219   1.084       .  S
C2210      C2215   1.471       .  S
C2210      C2211   1.405       .  A
C2211      C2212   1.397       .  A
C2211      O2216   1.372       .  S
C2212      C2213   1.406       .  A
C2212      H2217   1.083       .  S
C2213      C2214   1.415       .  A
C2214      O2218   1.372       .  S
C2215      C2220   1.407       .  A
C2215      C2224   1.399       .  A
O2216      H2232   0.992       .  S
O2218      H2229   0.992       .  S
C2220      C2221   1.400       .  A
C2220      O2225   1.372       .  S
C2221      C2222   1.404   1_565  A
C2221      H2226   1.084       .  S
C2222      C2223   1.410       .  A
C2223      C2224   1.392   1_545  A
C2223      O2227   1.372       .  S
C2224      H2228   1.084   1_565  S
O2225      H2230   0.992       .  S
O2227      H2231   0.993       .  S
C2233      C2234   1.403       .  A
C2233      C2238   1.399       .  A
C2233      H2243   1.084       .  S
C2234      C2239   1.480       .  S
C2234      C2235   1.408       .  A
C2235      C2236   1.401       .  A
C2235      O2240   1.373       .  S
C2236      C2237   1.402       .  A
C2236      H2241   1.084       .  S
C2237      C2238   1.408       .  A
C2238      O2242   1.372       .  S
C2239      C2244   1.407       .  A
C2239      C2248   1.403       .  A
O2240      H2256   0.992       .  S
O2242      H2253   0.992       .  S
C2244      C2245   1.395       .  A
C2244      O2249   1.372       .  S
C2245      C2246   1.406       .  A
C2245      H2250   1.083       .  S
C2246      C2247   1.415       .  A
C2247      C2248   1.403       .  A
C2247      O2251   1.371       .  S
C2248      H2252   1.084       .  S
O2249      H2254   0.992       .  S
O2251      H2255   0.992       .  S
