geometry optimzed in LAMMPS
_audit_creation_date              2020-11-30 
_audit_creation_method            'lammps2cif' 
_symmetry_space_group_name_H-M    'P1' 
_symmetry_Int_Tables_number       1 
_symmetry_cell_setting            triclinic 
loop_ 
_symmetry_equiv_pos_as_xyz 
  x,y,z 
_cell_length_a                    42.70106055 
_cell_length_b                    42.798055872111824 
_cell_length_c                    73.90188221302805 
_cell_angle_alpha                 89.97069595669572 
_cell_angle_beta                  89.97485856921107 
_cell_angle_gamma                 89.93955998180267 
loop_ 
_atom_site_label 
_atom_site_type_symbol 
_atom_site_fract_x 
_atom_site_fract_y 
_atom_site_fract_z 
_atom_site_charge 
O1          O  0.04166395  0.35379915  0.89364725    -0.86000
O2          O  0.47933328  0.33587937  0.89386710    -0.83000
C3          C  0.45201299  0.33176254  0.89993493     0.97500
O4          O  0.44115739  0.34981976  0.91192130    -0.83100
O5          O  0.47465695  0.33321558  0.94222271    -0.85700
C6          C  0.99725297  0.33130702  0.95315033     1.02000
O7          O  0.01862860  0.35174488  0.95296260    -0.78500
O8          O  0.04943518  0.33771206  0.92150926    -0.78600
C9          C  0.05491972  0.33561515  0.90481779     1.02000
O10         O  0.02223386  0.41810078  0.89548005    -0.86000
O11         O  0.46040979  0.40076769  0.89296663    -0.83000
C12         C  0.44623646  0.41838372  0.90409692     0.97500
O13         O  0.44916293  0.41413301  0.92090945    -0.83100
O14         O  0.47723008  0.39759787  0.95303379    -0.85700
C15         C  0.99872016  0.41778991  0.95421191     1.02000
O16         O  0.02197705  0.41678277  0.94374926    -0.78500
O17         O  0.05869148  0.40310429  0.91438791    -0.78600
C18         C  0.04898658  0.42183658  0.90237752     1.01900
Cr19       Cr  0.50076164  0.37698768  0.89575382     1.93700
Cr20       Cr  0.46326108  0.37382482  0.93115163     1.93200
Cr21       Cr  0.03457781  0.37726458  0.93221761     1.39100
O22         O  0.99951448  0.37605108  0.91964739    -1.23700
O23         O  0.29003812  0.10301923  0.86007400    -0.86000
O24         O  0.27730926  0.16584996  0.86171816    -0.83000
C25         C  0.29548610  0.17860975  0.85041620     0.97500
O26         O  0.29114444  0.17502694  0.83367772    -0.83100
O27         O  0.27383307  0.14549080  0.80226552    -0.85700
C28         C  0.29162275  0.12187248  0.80119249     1.02000
O29         O  0.28766346  0.09885746  0.81164922    -0.78500
O30         O  0.27141708  0.06638042  0.84251665    -0.78600
C31         C  0.29112032  0.07546603  0.85411263     1.02000
O32         O  0.22427938  0.08938918  0.86321885    -0.86000
O33         O  0.21192048  0.15241912  0.86171403    -0.83000
C34         C  0.20918697  0.17930528  0.85491117     0.97500
O35         O  0.22649964  0.18775462  0.84188250    -0.83100
O36         O  0.20929907  0.15391492  0.81190729    -0.85700
C37         C  0.20492086  0.13028490  0.80206944     1.02000
O38         O  0.22262700  0.10674334  0.80324786    -0.78500
O39         O  0.20683325  0.08012356  0.83586331    -0.78600
C40         C  0.20442727  0.07682455  0.85279014     1.01900
Cr41       Cr  0.25078901  0.12760011  0.85975362     1.93700
Cr42       Cr  0.25010217  0.16272119  0.82342473     1.93200
Cr43       Cr  0.24732030  0.09093921  0.82421567     1.39100
O44         O  0.24929153  0.12717476  0.83579607    -1.23700
O45         O  0.28811596  0.40045393  0.61384545    -0.86000
O46         O  0.22622658  0.41581746  0.61084867    -0.83000
C47         C  0.19909682  0.41809874  0.60435505     0.97500
O48         O  0.18973232  0.39904532  0.59246800    -0.83100
O49         O  0.22430370  0.41489315  0.56240913    -0.85700
C50         C  0.24786300  0.41778950  0.55223207     1.02000
O51         O  0.27084484  0.39926843  0.55376705    -0.78500
O52         O  0.29796935  0.41553606  0.58608848    -0.78600
C53         C  0.30143598  0.41893135  0.60291199     1.02000
O54         O  0.27137976  0.33557308  0.61256955    -0.86000
O55         O  0.20872805  0.35132863  0.61297845    -0.83000
C56         C  0.19666665  0.33213701  0.60198715     0.97500
O57         O  0.20199570  0.33432317  0.58526843    -0.83100
O58         O  0.23109761  0.35016408  0.55350089    -0.85700
C59         C  0.25388600  0.33133511  0.55284078     1.02000
O60         O  0.27677491  0.33452150  0.56346940    -0.78500
O61         O  0.30880257  0.35104499  0.59433312    -0.78600
C62         C  0.29875813  0.33262479  0.60641441     1.01900
Cr63       Cr  0.24867738  0.37570818  0.61074361     1.93700
Cr64       Cr  0.21441164  0.37465493  0.57435962     1.93200
Cr65       Cr  0.28591084  0.37507447  0.57528926     1.39100
O66         O  0.24970836  0.37510819  0.58679410    -1.23700
O67         O  0.04009500  0.14753535  0.64379442    -0.86000
O68         O  0.02435572  0.08563810  0.64181718    -0.83000
C69         C  0.04367829  0.07298740  0.65254682     0.97500
O70         O  0.04081738  0.07667186  0.66937830    -0.83100
O71         O  0.02537849  0.10363103  0.70171290    -0.85700
C72         C  0.04310880  0.12709692  0.70325437     1.02000
O73         O  0.03980500  0.15059380  0.69319551    -0.78500
O74         O  0.02542736  0.18406623  0.66287244    -0.78600
C75         C  0.04376114  0.17421135  0.65064507     1.02000
O76         O  0.47544692  0.16506420  0.64244650    -0.86000
O77         O  0.45937511  0.10292575  0.64397842    -0.83000
C78         C  0.45668912  0.07559293  0.65011836     0.97500
O79         O  0.47575697  0.06550755  0.66186555    -0.83100
O80         O  0.46023492  0.09776314  0.69280393    -0.85700
C81         C  0.45684690  0.12081000  0.70326869     1.02000
O82         O  0.47493785  0.14414416  0.70205267    -0.78500
O83         O  0.45981054  0.17321929  0.67023365    -0.78600
C84         C  0.45663181  0.17760405  0.65349849     1.01900
Cr85       Cr  0.99980811  0.12524988  0.64488486     1.93700
Cr86       Cr  0.00049886  0.08865531  0.68052800     1.93200
Cr87       Cr  0.99996532  0.16030926  0.68109656     1.39100
O88         O  0.00015117  0.12477580  0.66887767    -1.23700
O89         O  0.29009558  0.09995692  0.39299408    -0.86000
O90         O  0.22759707  0.08436627  0.39491751    -0.83000
C91         C  0.19998940  0.08217390  0.40082047     0.97500
O92         O  0.19036576  0.10093265  0.41285793    -0.83100
O93         O  0.22449053  0.08476543  0.44322890    -0.85700
C94         C  0.24784390  0.08156076  0.45353112     1.02000
O95         O  0.27056259  0.10052711  0.45263243    -0.78500
O96         O  0.30016852  0.08554901  0.42082973    -0.78600
C97         C  0.30383832  0.08192125  0.40403061     1.02000
O98         O  0.27296643  0.16487293  0.39417561    -0.86000
O99         O  0.21074821  0.14956249  0.39301214    -0.83000
C100        C  0.19797484  0.16858979  0.40389074     0.97500
O101        O  0.20195995  0.16561566  0.42071856    -0.83100
O102        O  0.23007936  0.14943912  0.45296715    -0.85700
C103        C  0.25275151  0.16835973  0.45412617     1.02000
O104        O  0.27579300  0.16579919  0.44355322    -0.78500
O105        O  0.30985123  0.15088074  0.41314307    -0.78600
C106        C  0.29994548  0.16870764  0.40069930     1.01900
Cr107      Cr  0.25037231  0.12467579  0.39564712     1.93700
Cr108      Cr  0.21450567  0.12516864  0.43153073     1.93200
Cr109      Cr  0.28632115  0.12568280  0.43160733     1.39100
O110        O  0.25047223  0.12517859  0.41958907    -1.23700
O111        O  0.46071449  0.39870128  0.35916746    -0.86000
O112        O  0.47363377  0.33619966  0.36135532    -0.83000
C113        C  0.45486264  0.32353852  0.35028290     0.97500
O114        O  0.45879677  0.32687417  0.33349541    -0.83100
O115        O  0.47671281  0.35363453  0.30135875    -0.85700
C116        C  0.45867088  0.37696415  0.29971439     1.02000
O117        O  0.46196235  0.40037119  0.30995534    -0.78500
O118        O  0.47758290  0.43469591  0.34048354    -0.78600
C119        C  0.45898015  0.42597103  0.35285946     1.02000
O120        O  0.02616840  0.41363321  0.36132781    -0.82000
O121        O  0.03959051  0.35081683  0.36026654    -0.83000
C122        C  0.04180972  0.32334435  0.35429685     0.97500
O123        O  0.02302318  0.31375137  0.34227429    -0.83100
O124        O  0.04111907  0.34579778  0.31167522    -0.85700
C125        C  0.04492998  0.36837728  0.30094361     1.02000
O126        O  0.02714393  0.39204539  0.30178473    -0.78500
O127        O  0.04270877  0.42170514  0.33366233    -0.78600
C128        C  0.04539023  0.42620015  0.35047221     1.01900
Cr129      Cr  0.00010633  0.37474232  0.35866713     1.93700
Cr130      Cr  0.00000002  0.33785402  0.32312588     1.93200
Cr131      Cr  0.00221085  0.40949667  0.32241507     1.39100
O132        O  0.00075712  0.37407328  0.33473057    -1.23700
O133        O  0.47488676  0.08396012  0.10980809    -0.86000
O134        O  0.03730538  0.09794711  0.11224270    -0.83000
C135        C  0.05072161  0.07976727  0.10123001     0.97500
O136        O  0.04764454  0.08347114  0.08440612    -0.83100
O137        O  0.01838238  0.09886069  0.05265139    -0.85700
C138        C  0.99473187  0.08117649  0.05159260     1.02000
O139        O  0.47136196  0.08515924  0.06177085    -0.78500
O140        O  0.43812211  0.10217391  0.09212867    -0.78600
C141        C  0.44757195  0.08208996  0.10344529     1.02000
O142        O  0.46003878  0.14991335  0.11192842    -0.86000
O143        O  0.02265506  0.16337576  0.11080361    -0.83000
C144        C  0.04973652  0.16613302  0.10417166     0.97500
O145        O  0.05893242  0.14795569  0.09176353    -0.83100
O146        O  0.02577267  0.16374499  0.06105886    -0.85700
C147        C  0.00248321  0.16702711  0.05073846     1.02000
O148        O  0.47911059  0.14914486  0.05216075    -0.78500
O149        O  0.45219066  0.16641678  0.08423386    -0.78600
C150        C  0.44877721  0.16980146  0.10104458     1.01900
Cr151      Cr  0.99868731  0.12381409  0.10935538     1.93700
Cr152      Cr  0.03487547  0.12362013  0.07340502     1.93200
Cr153      Cr  0.46296839  0.12562080  0.07352465     1.39100
O154        O  0.99897425  0.12435157  0.08540962    -1.23700
O155        O  0.20986259  0.34866683  0.14263615    -0.86000
O156        O  0.22228565  0.41128538  0.14075051    -0.83000
C157        C  0.20280733  0.42292748  0.15173741     0.97500
O158        O  0.20666756  0.41976949  0.16856669    -0.83100
O159        O  0.22425799  0.39175406  0.20045194    -0.85700
C160        C  0.20676426  0.36796363  0.20160441     1.02000
O161        O  0.21065361  0.34511891  0.19109452    -0.78500
O162        O  0.22821875  0.31246707  0.16068864    -0.78600
C163        C  0.20830350  0.32149291  0.14915914     1.02000
O164        O  0.27616317  0.33544416  0.14056900    -0.86000
O165        O  0.28825274  0.39807595  0.14219661    -0.83000
C166        C  0.29024334  0.42517701  0.14877243     0.97500
O167        O  0.27097278  0.43413903  0.16071038    -0.83100
O168        O  0.28899861  0.40098331  0.19105142    -0.85700
C169        C  0.29342420  0.37766800  0.20122973     1.02000
O170        O  0.27523525  0.35439269  0.20035687    -0.78500
O171        O  0.29213386  0.32706746  0.16836958    -0.78600
C172        C  0.29555377  0.32365383  0.15156727     1.01900
Cr173      Cr  0.24914901  0.37334490  0.14333256     1.93700
Cr174      Cr  0.24785284  0.40899943  0.17928641     1.93200
Cr175      Cr  0.25137272  0.33752712  0.17920203     1.39100
O176        O  0.24948326  0.37332317  0.16726385    -1.23700
C177        C  0.08268883  0.23651412  0.12894057    -0.11500
C178        C  0.11465809  0.23409989  0.12464503     0.05700
C179        C  0.12488264  0.20956861  0.11354513    -0.10200
C180        C  0.10364421  0.18780943  0.10682628    -0.11900
C181        C  0.07168757  0.18984425  0.11123103    -0.01700
C182        C  0.06136408  0.21437619  0.12239727    -0.10800
C183        C  0.13768309  0.25681918  0.13167217     0.05700
H184        H  0.14937913  0.20740628  0.10991786     0.07600
H185        H  0.11237336  0.16917061  0.09829737     0.11100
H186        H  0.03685590  0.21652568  0.12598521     0.11400
H187        H  0.07435239  0.25521380  0.13755708     0.07700
C188        C  0.13279343  0.28911039  0.12975641    -0.11500
C189        C  0.15585429  0.31031107  0.13526664    -0.10800
C190        C  0.18384287  0.29950643  0.14308752    -0.01700
C191        C  0.18828850  0.26721498  0.14536191    -0.11900
C192        C  0.16555342  0.24610248  0.13959302    -0.10300
H193        H  0.11152882  0.29784714  0.12358265     0.07700
H194        H  0.15175432  0.33511390  0.13350409     0.11400
H195        H  0.20959745  0.25821547  0.15136365     0.11100
H196        H  0.16974099  0.22129859  0.14130348     0.07600
C197        C  0.39108346  0.23655002  0.10395270    -0.11500
C198        C  0.39168774  0.24344388  0.12257125     0.05700
C199        C  0.41309903  0.22747644  0.13369409    -0.10200
C200        C  0.43205905  0.20395177  0.12659533    -0.11900
C201        C  0.43046287  0.19626502  0.10816071    -0.01700
C202        C  0.41048479  0.21337886  0.09679727    -0.10800
C203        C  0.36871251  0.26560720  0.13052485     0.05700
H204        H  0.41492762  0.23279666  0.14796752     0.07600
H205        H  0.44775098  0.19152875  0.13560042     0.11100
H206        H  0.40891185  0.20801489  0.08250738     0.11400
H207        H  0.37469723  0.24805004  0.09498199     0.07700
C208        C  0.35788716  0.29150447  0.12058871    -0.11500
C209        C  0.33422052  0.31058221  0.12750478    -0.10800
C210        C  0.32150224  0.30458715  0.14465208    -0.01700
C211        C  0.33299591  0.27953811  0.15489885    -0.11900
C212        C  0.35609306  0.26001361  0.14782837    -0.10300
H213        H  0.36750409  0.29694816  0.10741146     0.07700
H214        H  0.32587739  0.33006457  0.11947036     0.11400
H215        H  0.32328645  0.27435016  0.16810503     0.11100
H216        H  0.36324368  0.23994139  0.15572594     0.07600
C217        C  0.37266489  0.03805497  0.11316549    -0.11500
C218        C  0.38374854  0.01072431  0.12147108     0.05700
C219        C  0.41618343  0.00648578  0.12353578    -0.10200
C220        C  0.43711461  0.02972609  0.11779161    -0.11900
C221        C  0.42591741  0.05721574  0.10956995    -0.01700
C222        C  0.39348914  0.06090048  0.10712973    -0.10800
C223        C  0.35982653  0.48949865  0.12923739     0.05700
H224        H  0.42365607  0.48434235  0.12771081     0.07600
H225        H  0.46203084  0.02617290  0.11972355     0.11100
H226        H  0.38413011  0.08175358  0.10083777     0.11400
H227        H  0.34773537  0.04173637  0.11136835     0.07700
C228        C  0.33584268  0.49968774  0.14082155    -0.11500
C229        C  0.31352917  0.47869232  0.14731008    -0.10800
C230        C  0.31453125  0.44706906  0.14221610    -0.01700
C231        C  0.33880063  0.43676815  0.13080621    -0.11900
C232        C  0.36137086  0.45778496  0.12446234    -0.10300
H233        H  0.33622382  0.02176137  0.14471881     0.07700
H234        H  0.29524156  0.48735495  0.15614935     0.11400
H235        H  0.34028906  0.41251377  0.12674191     0.11100
H236        H  0.37961048  0.44942227  0.11548865     0.07600
C237        C  0.14636471  0.46030332  0.11881574    -0.11500
C238        C  0.12992542  0.48121919  0.12999907     0.05700
C239        C  0.13583535  0.48071993  0.14874817    -0.10200
C240        C  0.15864143  0.46086145  0.15597808    -0.11900
C241        C  0.17631719  0.44142700  0.14458878    -0.01700
C242        C  0.16943191  0.44082558  0.12600026    -0.10800
C243        C  0.11051162  0.00793433  0.12257206     0.05700
H244        H  0.12487223  0.99707735  0.15828087     0.07600
H245        H  0.16331146  0.46168149  0.17036846     0.11100
H246        H  0.18224813  0.42562397  0.11691341     0.11400
H247        H  0.14179061  0.45927935  0.10442299     0.07700
C248        C  0.11788703  0.02298119  0.10615846    -0.11500
C249        C  0.09809144  0.04585760  0.09900489    -0.10800
C250        C  0.07088164  0.05466667  0.10830296    -0.01700
C251        C  0.06354030  0.04000173  0.12475626    -0.11900
C252        C  0.08298217  0.01664496  0.13173911    -0.10300
H253        H  0.13529449  0.51145090  0.09741714     0.07700
H254        H  0.10445946  0.05724446  0.08643507     0.11400
H255        H  0.04253986  0.04639110  0.13211707     0.11100
H256        H  0.07632676  0.00530607  0.14425457     0.07600
C257        C  0.11208447  0.34044128  0.27126032    -0.11500
C258        C  0.11425437  0.36506286  0.25870453     0.05700
C259        C  0.09345221  0.39035359  0.26019162    -0.10200
C260        C  0.07135486  0.39138231  0.27401712    -0.11900
C261        C  0.06919647  0.36700201  0.28667092    -0.01700
C262        C  0.08972436  0.34139840  0.28514247    -0.10800
C263        C  0.13830093  0.36511009  0.24420979     0.05700
H264        H  0.09403714  0.40935096  0.25052296     0.07600
H265        H  0.05573261  0.41130563  0.27466870     0.11100
H266        H  0.08855472  0.32220696  0.29466974     0.11400
H267        H  0.12797680  0.32073441  0.27052540     0.07700
C268        C  0.15353065  0.39311099  0.23964523    -0.11500
C269        C  0.17535556  0.39394833  0.22566175    -0.10800
C270        C  0.18267773  0.36677175  0.21592217    -0.01700
C271        C  0.16760637  0.33863392  0.22045222    -0.11900
C272        C  0.14567661  0.33778604  0.23454016    -0.10300
H273        H  0.14879186  0.41443939  0.24702117     0.07700
H274        H  0.18660195  0.41597417  0.22252956     0.11400
H275        H  0.17292923  0.31728590  0.21321953     0.11100
H276        H  0.13411656  0.31592216  0.23765602     0.07600
C277        C  0.39408886  0.40348418  0.26768894    -0.11500
C278        C  0.38978741  0.37687191  0.25678578     0.05700
C279        C  0.40792811  0.35013977  0.26043823    -0.10200
C280        C  0.42994406  0.35014897  0.27446263    -0.11900
C281        C  0.43446797  0.37687488  0.28523611    -0.01700
C282        C  0.41612046  0.40348669  0.28174303    -0.10800
C283        C  0.36614519  0.37683895  0.24189318     0.05700
H284        H  0.40551621  0.32931268  0.25225579     0.07600
H285        H  0.44362920  0.32918628  0.27676943     0.11100
H286        H  0.41889395  0.42439735  0.28980327     0.11400
H287        H  0.38012320  0.42428078  0.26550843     0.07700
C288        C  0.34804438  0.35008010  0.23843751    -0.11500
C289        C  0.32491587  0.35037180  0.22506340    -0.10800
C290        C  0.31916609  0.37741775  0.21475009    -0.01700
C291        C  0.33778550  0.40394917  0.21780739    -0.11900
C292        C  0.36097923  0.40366388  0.23124005    -0.10300
H293        H  0.35110764  0.32909219  0.24642191     0.07700
H294        H  0.31118523  0.32940333  0.22299418     0.11400
H295        H  0.33416750  0.42504895  0.20999818     0.11100
H296        H  0.37490783  0.42449528  0.23327682     0.07600
C297        C  0.14111331  0.23675003  0.40155239    -0.11500
C298        C  0.13490195  0.23826939  0.38290180     0.05700
C299        C  0.15068176  0.21775804  0.37120101    -0.10200
C300        C  0.17163223  0.19565359  0.37802316    -0.11900
C301        C  0.17718820  0.19341683  0.39672833    -0.01700
C302        C  0.16199808  0.21447556  0.40841693    -0.10800
C303        C  0.11122067  0.26032144  0.37565176     0.05700
H304        H  0.14669116  0.21873810  0.35674411     0.07600
H305        H  0.18311764  0.17996318  0.36862063     0.11100
H306        H  0.16584237  0.21341261  0.42287937     0.11400
H307        H  0.12911275  0.25218904  0.41088367     0.07700
C308        C  0.08933224  0.25008649  0.36278059    -0.11500
C309        C  0.06685114  0.27056793  0.35589394    -0.10800
C310        C  0.06576861  0.30181901  0.36168616    -0.01700
C311        C  0.08763833  0.31209182  0.37460232    -0.11900
C312        C  0.11010982  0.29150538  0.38155159    -0.10300
H313        H  0.08934888  0.22605263  0.35819902     0.07700
H314        H  0.05024122  0.26184393  0.34605584     0.11400
H315        H  0.08744032  0.33605084  0.37931666     0.11100
H316        H  0.12685305  0.30003307  0.39136792     0.07600
C317        C  0.37008772  0.22163393  0.39417060    -0.11500
C318        C  0.36165879  0.23867255  0.37866271     0.05700
C319        C  0.33244106  0.23297133  0.37058428    -0.10200
C320        C  0.31206785  0.21067188  0.37791447    -0.11900
C321        C  0.32070437  0.19337478  0.39333205    -0.01700
C322        C  0.34990034  0.19922879  0.40139964    -0.10800
C323        C  0.38360623  0.26209201  0.37102144     0.05700
H324        H  0.32527290  0.24594341  0.35870035     0.07600
H325        H  0.28972249  0.20672173  0.37138040     0.11100
H326        H  0.35729778  0.18633135  0.41325934     0.11400
H327        H  0.39262127  0.22526335  0.40055151     0.07700
C328        C  0.39969784  0.28257001  0.38257600    -0.11500
C329        C  0.42220838  0.30304257  0.37573564    -0.10800
C330        C  0.42918236  0.30353936  0.35716158    -0.01700
C331        C  0.41229074  0.28384621  0.34546518    -0.11900
C332        C  0.38970572  0.26329894  0.35233987    -0.10300
H333        H  0.39506276  0.28252478  0.39697933     0.07700
H334        H  0.43450002  0.31818213  0.38506710     0.11400
H335        H  0.41712621  0.28369239  0.33107844     0.11100
H336        H  0.37775783  0.24764110  0.34313707     0.07600
C337        C  0.41434539  0.50072788  0.36220832    -0.11500
C338        C  0.39363962  0.49136353  0.37595348     0.05700
C339        C  0.39460568  0.46034649  0.38211862    -0.10200
C340        C  0.41558496  0.43899139  0.37447429    -0.11900
C341        C  0.43613439  0.44830083  0.36059589    -0.01700
C342        C  0.43538286  0.47945574  0.35461917    -0.10800
C343        C  0.36778873  0.01227579  0.38336450     0.05700
H344        H  0.37874431  0.45249174  0.39260145     0.07600
H345        H  0.41568758  0.41516964  0.37944173     0.11100
H346        H  0.45112538  0.48746441  0.34411438     0.11400
H347        H  0.41172448  0.02318062  0.35733870     0.07700
C348        C  0.36155214  0.01408172  0.40203112    -0.11500
C349        C  0.34052649  0.03641154  0.40880992    -0.10800
C350        C  0.32515975  0.05725710  0.39703802    -0.01700
C351        C  0.33083785  0.05480247  0.37835714    -0.11900
C352        C  0.35186514  0.03265874  0.37162426    -0.10300
H353        H  0.37354866  0.99877420  0.41143909     0.07700
H354        H  0.33659733  0.03759669  0.42326611     0.11400
H355        H  0.31927412  0.07028946  0.36887177     0.11100
H356        H  0.35680204  0.53157254  0.35715681     0.07600
C357        C  0.11694548  0.47927178  0.35331601    -0.11500
C358        C  0.11525123  0.49001179  0.37130092     0.05700
C359        C  0.09116145  0.47845777  0.38244185    -0.10200
C360        C  0.06898181  0.45744136  0.37572238    -0.11900
C361        C  0.07013088  0.44733375  0.35763942    -0.01700
C362        C  0.09457755  0.45827002  0.34654179    -0.10800
C363        C  0.13572521  0.01531400  0.37780624     0.05700
H364        H  0.08738239  0.98740724  0.39544982     0.07600
H365        H  0.05057411  0.44945147  0.38469542     0.11100
H366        H  0.09624030  0.45083790  0.33258269     0.11400
H367        H  0.13506753  0.48775668  0.34430422     0.07700
C368        C  0.16797136  0.01324079  0.37411273    -0.11500
C369        C  0.18897522  0.03475737  0.38167370    -0.10800
C370        C  0.17815379  0.05876499  0.39308212    -0.01700
C371        C  0.14589902  0.06085004  0.39667996    -0.11900
C372        C  0.12497813  0.03948216  0.38909950    -0.10300
H373        H  0.17864422  0.49525612  0.36462553     0.07700
H374        H  0.21369778  0.03251321  0.37865527     0.11400
H375        H  0.13671221  0.07925011  0.40521811     0.11100
H376        H  0.10022957  0.04204484  0.39197738     0.07600
C377        C  0.22297416  0.48376003  0.52105152    -0.11500
C378        C  0.24931583  0.48670212  0.50977305     0.05700
C379        C  0.27525870  0.46720524  0.51273997    -0.10200
C380        C  0.27478463  0.44502766  0.52660602    -0.11900
C381        C  0.24842058  0.44197133  0.53789329    -0.01700
C382        C  0.22256361  0.46170306  0.53502659    -0.10800
C383        C  0.24871348  0.01005494  0.49456290     0.05700
H384        H  0.29575544  0.46883691  0.50415810     0.07600
H385        H  0.29508653  0.43014588  0.52841508     0.11100
H386        H  0.20194788  0.45997839  0.54349838     0.11400
H387        H  0.20280347  0.49879200  0.51916876     0.07700
C388        C  0.22356606  0.01226892  0.48234616    -0.11500
C389        C  0.22340176  0.03517150  0.46883232    -0.10800
C390        C  0.24840225  0.05633606  0.46725478    -0.01700
C391        C  0.27385463  0.05363066  0.47921378    -0.11900
C392        C  0.27399352  0.03080170  0.49270930    -0.10300
H393        H  0.20357161  0.49903338  0.48501476     0.07700
H394        H  0.20357834  0.03647018  0.45973447     0.11400
H395        H  0.29353690  0.06951182  0.47835215     0.11100
H396        H  0.29357486  0.02993682  0.50199715     0.07600
C397        C  0.22598786  0.27786201  0.51547161    -0.11500
C398        C  0.25325015  0.26098952  0.51129547     0.05700
C399        C  0.28067255  0.26674781  0.52128573    -0.10200
C400        C  0.28086584  0.28914105  0.53508254    -0.11900
C401        C  0.25371643  0.30641267  0.53899658    -0.01700
C402        C  0.22624101  0.30037268  0.52911735    -0.10800
C403        C  0.25301213  0.23756968  0.49649925     0.05700
H404        H  0.30190533  0.25378499  0.51848819     0.07600
H405        H  0.30235702  0.29325813  0.54248040     0.11100
H406        H  0.20488282  0.31321631  0.53184375     0.11400
H407        H  0.20459307  0.27409164  0.50792156     0.07700
C408        C  0.22786845  0.21666029  0.49470134    -0.11500
C409        C  0.22768829  0.19445059  0.48084712    -0.10800
C410        C  0.25259936  0.19267781  0.46842849    -0.01700
C411        C  0.27756166  0.21388960  0.47009443    -0.11900
C412        C  0.27777864  0.23605318  0.48400777    -0.10300
H413        H  0.20858334  0.21713876  0.50420579     0.07700
H414        H  0.20809551  0.17843311  0.47998147     0.11400
H415        H  0.29701209  0.21326017  0.46071174     0.11100
H416        H  0.29723535  0.25221945  0.48491646     0.07600
C417        C  0.13514122  0.29210053  0.63018896    -0.11500
C418        C  0.13438908  0.26194020  0.62259222     0.05700
C419        C  0.15414020  0.25539860  0.60778122    -0.10200
C420        C  0.17402638  0.27839673  0.60081107    -0.11900
C421        C  0.17518255  0.30805156  0.60881871    -0.01700
C422        C  0.15563938  0.31470485  0.62355598    -0.10800
C423        C  0.11282082  0.23775842  0.63002762     0.05700
H424        H  0.15467471  0.23241642  0.60171108     0.07600
H425        H  0.18906929  0.27279128  0.58945442     0.11100
H426        H  0.15581126  0.33764527  0.62974632     0.11400
H427        H  0.11964593  0.29852045  0.64116537     0.07700
C428        C  0.10467995  0.23784342  0.64850523    -0.11500
C429        C  0.08251322  0.21691452  0.65523840    -0.10800
C430        C  0.06868011  0.19479833  0.64379460    -0.01700
C431        C  0.07785949  0.19344355  0.62558418    -0.11900
C432        C  0.09939370  0.21495900  0.61870368    -0.10300
H433        H  0.11525079  0.25421101  0.65782860     0.07700
H434        H  0.07614852  0.21801536  0.66941748     0.11400
H435        H  0.06738068  0.17659465  0.61649093     0.11100
H436        H  0.10463500  0.21428273  0.60438204     0.07600
C437        C  0.36986023  0.28120070  0.61169026    -0.11500
C438        C  0.36217347  0.26296576  0.62686254     0.05700
C439        C  0.33305785  0.26783464  0.63538428    -0.10200
C440        C  0.31216465  0.29036336  0.62878325    -0.11900
C441        C  0.32001377  0.30833794  0.61352877    -0.01700
C442        C  0.34902975  0.30342189  0.60507152    -0.10800
C443        C  0.38493748  0.23951137  0.63376426     0.05700
H444        H  0.32624086  0.25403202  0.64701320     0.07600
H445        H  0.28998107  0.29375097  0.63562055     0.11100
H446        H  0.35586120  0.31694716  0.59332961     0.11400
H447        H  0.39231780  0.27879884  0.60504792     0.07700
C448        C  0.40455965  0.22327903  0.62168134    -0.11500
C449        C  0.42768593  0.20310906  0.62809667    -0.10800
C450        C  0.43146803  0.19825601  0.64675017    -0.01700
C451        C  0.41125088  0.21361049  0.65884981    -0.11900
C452        C  0.38830014  0.23411108  0.65243121    -0.10300
H453        H  0.40214175  0.22616577  0.60719788     0.07700
H454        H  0.44268603  0.19139718  0.61840895     0.11400
H455        H  0.41353382  0.21025664  0.67330927     0.11100
H456        H  0.37387796  0.24641933  0.66214586     0.07600
C457        C  0.36306160  0.48231946  0.60496493    -0.11500
C458        C  0.36491008  0.48797252  0.62364501     0.05700
C459        C  0.34482018  0.47175954  0.63539156    -0.10200
C460        C  0.32368503  0.44982571  0.62860581    -0.11900
C461        C  0.32231757  0.44360974  0.60994449    -0.01700
C462        C  0.34196428  0.46035216  0.59816925    -0.10800
C463        C  0.38671256  0.01288927  0.62962411     0.05700
H464        H  0.34669321  0.97641809  0.64889741     0.07600
H465        H  0.30864220  0.43748570  0.63800856     0.11100
H466        H  0.34152182  0.45600918  0.58374616     0.11400
H467        H  0.37851173  0.49435332  0.59564850     0.07700
C468        C  0.40672538  0.00373072  0.64370749    -0.11500
C469        C  0.42919520  0.02426519  0.65037941    -0.10800
C470        C  0.43211722  0.05450110  0.64317493    -0.01700
C471        C  0.41192939  0.06383231  0.62913534    -0.11900
C472        C  0.38950280  0.04308988  0.62234823    -0.10300
H473        H  0.40418513  0.47933632  0.65222668     0.07700
H474        H  0.44445484  0.01628952  0.66116190     0.11400
H475        H  0.41363856  0.08695977  0.62332028     0.11100
H476        H  0.37417792  0.05068814  0.61150565     0.07600
C477        C  0.11197819  0.01656343  0.65003159    -0.11500
C478        C  0.11463929  0.01186005  0.63128522     0.05700
C479        C  0.09480297  0.02849928  0.61957881    -0.10200
C480        C  0.07217897  0.04879886  0.62649639    -0.11900
C481        C  0.06884791  0.05282818  0.64527268    -0.01700
C482        C  0.08927737  0.03682730  0.65697178    -0.10800
C483        C  0.13517542  0.48608107  0.62514181     0.05700
H484        H  0.09667022  0.02563284  0.60506686     0.07600
H485        H  0.05699133  0.06101750  0.61710995     0.11100
H486        H  0.08735067  0.03949917  0.67148835     0.11400
H487        H  0.12682353  0.00381282  0.65936625     0.07700
C488        C  0.16573965  0.48424838  0.63203889    -0.11500
C489        C  0.18676717  0.46237816  0.62512794    -0.10800
C490        C  0.17750170  0.44202296  0.61123489    -0.01700
C491        C  0.14696392  0.44399615  0.60430605    -0.11900
C492        C  0.12598014  0.46577640  0.61123045    -0.10300
H493        H  0.17564548  0.00246946  0.64114344     0.07700
H494        H  0.21019353  0.46132143  0.63072054     0.11400
H495        H  0.13913059  0.42849545  0.59366374     0.11100
H496        H  0.10236772  0.46640882  0.60587984     0.07600
C497        C  0.10586293  0.10095517  0.73573245    -0.11500
C498        C  0.11066121  0.12823274  0.74605590     0.05700
C499        C  0.09295237  0.15506566  0.74187294    -0.10200
C500        C  0.07169214  0.15486579  0.72757428    -0.11900
C501        C  0.06678284  0.12754610  0.71758246    -0.01700
C502        C  0.08373623  0.10049795  0.72183237    -0.10800
C503        C  0.13419265  0.12891397  0.76093236     0.05700
H504        H  0.09506627  0.17623312  0.74975824     0.07600
H505        H  0.05836092  0.17581980  0.72466287     0.11100
H506        H  0.08025772  0.07919981  0.71417215     0.11400
H507        H  0.11942754  0.08000386  0.73814759     0.07700
C508        C  0.14170984  0.10160587  0.77065321    -0.11500
C509        C  0.16464023  0.10215519  0.78409127    -0.10800
C510        C  0.17980488  0.13016992  0.78851767    -0.01700
C511        C  0.17186258  0.15761677  0.77929841    -0.11900
C512        C  0.14968784  0.15691538  0.76545010    -0.10300
H513        H  0.12985564  0.07975171  0.76801291     0.07700
H514        H  0.17034076  0.08070978  0.79117224     0.11400
H515        H  0.18364922  0.17937990  0.78234948     0.11100
H516        H  0.14537145  0.17829032  0.75804308     0.07600
C517        C  0.34321189  0.14636199  0.76191554    -0.11500
C518        C  0.36261010  0.12015361  0.75968935     0.05700
C519        C  0.35889025  0.09451224  0.77137431    -0.10200
C520        C  0.33613472  0.09509601  0.78504093    -0.11900
C521        C  0.31644436  0.12121925  0.78713358    -0.01700
C522        C  0.32035777  0.14686504  0.77543127    -0.10800
C523        C  0.38679951  0.11991810  0.74528679     0.05700
H524        H  0.37382561  0.07416639  0.77004375     0.07600
H525        H  0.33384179  0.07505682  0.79388003     0.11100
H526        H  0.30562549  0.16738449  0.77664132     0.11400
H527        H  0.34547073  0.16634295  0.75301395     0.07700
C528        C  0.38997292  0.09425707  0.73357291    -0.11500
C529        C  0.41245959  0.09455674  0.71975949    -0.10800
C530        C  0.43239401  0.12043038  0.71753071    -0.01700
C531        C  0.42918596  0.14599452  0.72934341    -0.11900
C532        C  0.40659836  0.14577664  0.74300826    -0.10300
H533        H  0.37475195  0.07415414  0.73496104     0.07700
H534        H  0.41429889  0.07453123  0.71088475     0.11400
H535        H  0.44421549  0.16625937  0.72807588     0.11100
H536        H  0.40479290  0.16573362  0.75194658     0.07600
C537        C  0.47847946  0.45905133  0.99770823    -0.11500
C538        C  0.99594297  0.48671428  0.99606368     0.05700
C539        C  0.01370162  0.49175684  0.98030603    -0.10200
C540        C  0.01455724  0.46932589  0.96667858    -0.11900
C541        C  0.99721519  0.44171030  0.96839318    -0.01700
C542        C  0.47891838  0.43684694  0.98391887    -0.10800
C543        C  0.99384858  0.01283629  0.00939123     0.05700
H544        H  0.02682207  0.51314053  0.97843231     0.07600
H545        H  0.02859039  0.47369300  0.95472668     0.11100
H546        H  0.46552890  0.41555607  0.98558894     0.11400
H547        H  0.46495347  0.45425755  0.00978985     0.07700
C548        C  0.46563283  0.02261982  0.01742944    -0.11500
C549        C  0.46588811  0.04418547  0.03157176    -0.10800
C550        C  0.99430574  0.05668419  0.03769862    -0.01700
C551        C  0.02249975  0.04665189  0.02985306    -0.11900
C552        C  0.02229108  0.02477101  0.01593966    -0.10300
H553        H  0.44331298  0.01412994  0.01256109     0.07700
H554        H  0.44382442  0.05174819  0.03734661     0.11400
H555        H  0.04476533  0.05571388  0.03448899     0.11100
H556        H  0.04512771  0.52188140  0.00778717     0.07600
C557        C  0.02182280  0.28426310  0.99401808    -0.11500
C558        C  0.00088079  0.25903731  0.99350738     0.05700
C559        C  0.47887557  0.25740468  0.97936515    -0.10200
C560        C  0.47765446  0.28076643  0.96613890    -0.11900
C561        C  0.99850285  0.30609885  0.96678733    -0.01700
C562        C  0.02070053  0.30746710  0.98080002    -0.10800
C563        C  0.00149378  0.23512238  0.00802763     0.05700
H564        H  0.46268290  0.23801051  0.97850159     0.07600
H565        H  0.46044251  0.27899809  0.95542433     0.11100
H566        H  0.03698992  0.32677433  0.98173750     0.11400
H567        H  0.03867144  0.28646246  0.00488876     0.07700
C568        C  0.03010743  0.22435927  0.01514632    -0.11500
C569        C  0.03056497  0.20264076  0.02928544    -0.10800
C570        C  0.00242452  0.19103505  0.03640972    -0.01700
C571        C  0.47385860  0.20167436  0.02924993    -0.11900
C572        C  0.47339051  0.22358337  0.01527027    -0.10300
H573        H  0.05214954  0.23253697  0.00967468     0.07700
H574        H  0.05288541  0.19450407  0.03441484     0.11400
H575        H  0.45180500  0.19322543  0.03457792     0.11100
H576        H  0.45099945  0.23185045  0.01031819     0.07600
C577        C  0.09942564  0.26027723  0.89795362    -0.11500
C578        C  0.12213641  0.26925249  0.88513029     0.05700
C579        C  0.12285868  0.30061368  0.87936396    -0.10200
C580        C  0.10078460  0.32206559  0.88569961    -0.11900
C581        C  0.07809648  0.31287542  0.89831014    -0.01700
C582        C  0.07787506  0.28202101  0.90465764    -0.10800
C583        C  0.14445957  0.24596997  0.87744966     0.05700
H584        H  0.14049515  0.30867791  0.86994444     0.07600
H585        H  0.10165544  0.34599000  0.88092329     0.11100
H586        H  0.06046207  0.27455402  0.91441035     0.11400
H587        H  0.09778891  0.23632017  0.90253051     0.07700
C588        C  0.15582415  0.22102671  0.88801047    -0.11500
C589        C  0.17636139  0.19898474  0.88059882    -0.10800
C590        C  0.18643310  0.20171092  0.86257731    -0.01700
C591        C  0.17532997  0.22665846  0.85204995    -0.11900
C592        C  0.15436566  0.24833040  0.85932959    -0.10300
H593        H  0.14923315  0.21871746  0.90208498     0.07700
H594        H  0.18489721  0.18017595  0.88908718     0.11400
H595        H  0.18257533  0.22920903  0.83808324     0.11100
H596        H  0.14561971  0.26670571  0.85061999     0.07600
C597        C  0.38104704  0.28063324  0.89287132    -0.11500
C598        C  0.39038386  0.26157666  0.87841298     0.05700
C599        C  0.42072636  0.26493471  0.87129132    -0.10200
C600        C  0.44127244  0.28725322  0.87847775    -0.11900
C601        C  0.43159409  0.30675141  0.89273896    -0.01700
C602        C  0.40135010  0.30292265  0.89993959    -0.10800
C603        C  0.36801601  0.23863523  0.87086458     0.05700
H604        H  0.42850557  0.25026679  0.86024380     0.07600
H605        H  0.46448373  0.28954624  0.87272036     0.11100
H606        H  0.39310280  0.31745921  0.91093818     0.11400
H607        H  0.35768585  0.27872188  0.89849869     0.07700
C608        C  0.35040890  0.21977892  0.88259374    -0.11500
C609        C  0.32733108  0.19998901  0.87583406    -0.10800
C610        C  0.32123764  0.19857453  0.85716503    -0.01700
C611        C  0.33935404  0.21691456  0.84533209    -0.11900
C612        C  0.36261912  0.23675329  0.85214324    -0.10300
H613        H  0.35433039  0.22058591  0.89705740     0.07700
H614        H  0.31399120  0.18600590  0.88532317     0.11400
H615        H  0.33515298  0.21638026  0.83089643     0.11100
H616        H  0.37572056  0.25134645  0.84284714     0.07600
C617        C  0.35656774  0.04010615  0.88203245    -0.11500
C618        C  0.35761229  0.00938578  0.87532055     0.05700
C619        C  0.33686941  0.00080438  0.86142910    -0.10200
C620        C  0.31560675  0.02240457  0.85441123    -0.11900
C621        C  0.31448683  0.05308143  0.86117233    -0.01700
C622        C  0.33522536  0.06173138  0.87502768    -0.10800
C623        C  0.38472586  0.49002052  0.88360391     0.05700
H624        H  0.35005628  0.48479188  0.85284913     0.07600
H625        H  0.29984804  0.01494771  0.84378823     0.11100
H626        H  0.33490565  0.08519184  0.88051699     0.11400
H627        H  0.37251021  0.04755775  0.89254562     0.07700
C628        C  0.40529863  0.47402746  0.87200145    -0.11500
C629        C  0.42535657  0.45100240  0.87871517    -0.10800
C630        C  0.42545104  0.44346346  0.89721894    -0.01700
C631        C  0.40533571  0.45988340  0.90892944    -0.11900
C632        C  0.38516223  0.48292638  0.90218095    -0.10300
H633        H  0.40586687  0.47932256  0.85768144     0.07700
H634        H  0.44078416  0.43903635  0.86935906     0.11400
H635        H  0.40482234  0.45458742  0.92325278     0.11100
H636        H  0.36933951  0.49464317  0.91142674     0.07600
C637        C  0.15550882  0.03205750  0.88694289    -0.11500
C638        C  0.13335277  0.01712760  0.87586587     0.05700
C639        C  0.13397866  0.02306075  0.85713083    -0.10200
C640        C  0.15666688  0.04281142  0.84961295    -0.11900
C641        C  0.17924413  0.05713616  0.86066589    -0.01700
C642        C  0.17812273  0.05180992  0.87944661    -0.10800
C643        C  0.11212842  0.49271413  0.88260397     0.05700
H644        H  0.11750802  0.01166190  0.84817292     0.07600
H645        H  0.15683245  0.04644451  0.83511188     0.11100
H646        H  0.19503997  0.06259631  0.88839536     0.11400
H647        H  0.14939377  0.53392802  0.90093023     0.07700
C648        C  0.11982789  0.47462805  0.89783377    -0.11500
C649        C  0.09903875  0.45211847  0.90440432    -0.10800
C650        C  0.06992693  0.44721143  0.89597285    -0.01700
C651        C  0.06178393  0.46594890  0.88106080    -0.11900
C652        C  0.08273432  0.48836595  0.87439802    -0.10300
H653        H  0.14237786  0.47722080  0.90435716     0.07700
H654        H  0.10604444  0.43818109  0.91595208     0.11400
H655        H  0.03949457  0.46287442  0.87431502     0.11100
H656        H  0.07151152  0.00868480  0.86695826     0.07600
O657        O  0.04059273  0.85426745  0.89367016    -0.86000
O658        O  0.47873580  0.83655924  0.89373536    -0.83000
C659        C  0.45161338  0.83205236  0.89998067     0.97500
O660        O  0.44070423  0.84970676  0.91217350    -0.83100
O661        O  0.47363649  0.83437609  0.94296098    -0.85700
C662        C  0.99617846  0.83278401  0.95395278     1.02000
O663        O  0.01802203  0.85262899  0.95320565    -0.78500
O664        O  0.04761030  0.83683723  0.92128475    -0.78600
C665        C  0.05257453  0.83467342  0.90449700     1.02000
O666        O  0.02139308  0.91876413  0.89593588    -0.86000
O667        O  0.45962577  0.90077045  0.89270504    -0.83000
C668        C  0.44498774  0.91818921  0.90365714     0.97500
O669        O  0.44824956  0.91457674  0.92048218    -0.83100
O670        O  0.47662175  0.89936082  0.95249881    -0.85700
C671        C  0.99838067  0.91930342  0.95351404     1.02000
O672        O  0.02223997  0.91711576  0.94351946    -0.78500
O673        O  0.05837767  0.90223802  0.91401603    -0.78600
C674        C  0.04840087  0.92193757  0.90261345     1.01900
Cr675      Cr  0.50000417  0.87754683  0.89578054     1.93700
Cr676      Cr  0.46250154  0.87458285  0.93115670     1.93200
Cr677      Cr  0.03398916  0.87709151  0.93207929     1.39100
O678        O  0.99872255  0.87637719  0.91965606    -1.23700
O679        O  0.29105190  0.60452534  0.86113174    -0.86000
O680        O  0.27686763  0.66697107  0.86216714    -0.83000
C681        C  0.29557379  0.67912251  0.85091610     0.97500
O682        O  0.29145471  0.67539053  0.83418894    -0.83100
O683        O  0.27508859  0.64589221  0.80267700    -0.85700
C684        C  0.29297942  0.62233996  0.80155021     1.02000
O685        O  0.28948932  0.59954442  0.81217647    -0.78500
O686        O  0.27441685  0.56741626  0.84318343    -0.78600
C687        C  0.29349860  0.57718927  0.85498584     1.02000
O688        O  0.22548116  0.58921070  0.86373014    -0.86000
O689        O  0.21169235  0.65188419  0.86175694    -0.83000
C690        C  0.20838122  0.67859949  0.85484009     0.97500
O691        O  0.22612467  0.68756632  0.84209082    -0.83100
O692        O  0.21035947  0.65343720  0.81200549    -0.85700
C693        C  0.20663070  0.62986282  0.80203909     1.02000
O694        O  0.22422306  0.60622658  0.80364576    -0.78500
O695        O  0.20928303  0.57914834  0.83621564    -0.78600
C696        C  0.20643153  0.57590453  0.85309847     1.01900
Cr697      Cr  0.25120405  0.62806476  0.86025261     1.93700
Cr698      Cr  0.25072733  0.66279090  0.82378027     1.93200
Cr699      Cr  0.24941608  0.59099365  0.82472464     1.39100
O700        O  0.25031175  0.62731900  0.83624081    -1.23700
O701        O  0.28925253  0.90022115  0.61328287    -0.86000
O702        O  0.22695811  0.91520205  0.61079195    -0.83000
C703        C  0.19979534  0.91773473  0.60431039     0.97500
O704        O  0.19030960  0.89852968  0.59250818    -0.83100
O705        O  0.22451797  0.91501296  0.56234712    -0.85700
C706        C  0.24797398  0.91825797  0.55211980     1.02000
O707        O  0.27116356  0.89993545  0.55344816    -0.78500
O708        O  0.29895263  0.91526487  0.58551177    -0.78600
C709        C  0.30233595  0.91882762  0.60230626     1.02000
O710        O  0.27298057  0.83509428  0.61172985    -0.86000
O711        O  0.21015357  0.85026358  0.61252265    -0.83000
C712        C  0.19805407  0.83121054  0.60144843     0.97500
O713        O  0.20312103  0.83376842  0.58472310    -0.83100
O714        O  0.23154097  0.85080112  0.55284473    -0.85700
C715        C  0.25460783  0.83239932  0.55163208     1.02000
O716        O  0.27739468  0.83492502  0.56238590    -0.78500
O717        O  0.31011895  0.85042266  0.59326156    -0.78600
C718        C  0.30025329  0.83201859  0.60541335     1.01900
Cr719      Cr  0.24989868  0.87513228  0.61026264     1.93700
Cr720      Cr  0.21504951  0.87452277  0.57407692     1.93200
Cr721      Cr  0.28668972  0.87506912  0.57458206     1.39100
O722        O  0.25061117  0.87489651  0.58630457    -1.23700
O723        O  0.03991904  0.64706375  0.64329016    -0.86000
O724        O  0.02485751  0.58479055  0.64234811    -0.83000
C725        C  0.04417749  0.57238143  0.65314325     0.97500
O726        O  0.04196081  0.57692639  0.66989897    -0.83100
O727        O  0.02745519  0.60503640  0.70181709    -0.85700
C728        C  0.04520483  0.62862736  0.70263703     1.02000
O729        O  0.04094042  0.65179802  0.69244876    -0.78500
O730        O  0.02478011  0.68397356  0.66193901    -0.78600
C731        C  0.04334591  0.67401288  0.64985619     1.02000
O732        O  0.47464450  0.66322967  0.64228040    -0.86000
O733        O  0.46000992  0.60083739  0.64471072    -0.83000
C734        C  0.45781764  0.57364910  0.65115668     0.97500
O735        O  0.47700347  0.56430875  0.66304929    -0.83100
O736        O  0.46199803  0.59776665  0.69348450    -0.85700
C737        C  0.45853153  0.62102322  0.70373371     1.02000
O738        O  0.47632641  0.64454736  0.70219699    -0.78500
O739        O  0.45974312  0.67233459  0.67012841    -0.78600
C740        C  0.45607374  0.67607916  0.65336232     1.01900
Cr741      Cr  0.99992293  0.62404092  0.64501092     1.93700
Cr742      Cr  0.00197419  0.58878207  0.68112682     1.93200
Cr743      Cr  0.00042283  0.66041353  0.68074559     1.39100
O744        O  0.00080636  0.62443317  0.66898234    -1.23700
O745        O  0.29216024  0.60025739  0.39319057    -0.86000
O746        O  0.22961928  0.58426376  0.39467852    -0.83000
C747        C  0.20211970  0.58168134  0.40073502     0.97500
O748        O  0.19251079  0.60015239  0.41295098    -0.83100
O749        O  0.22653177  0.58456728  0.44345906    -0.85700
C750        C  0.24980175  0.58145892  0.45383479     1.02000
O751        O  0.27257735  0.60033968  0.45285836    -0.78500
O752        O  0.30192937  0.58530975  0.42098492    -0.78600
C753        C  0.30588967  0.58213571  0.40419171     1.02000
O754        O  0.27456561  0.66506487  0.39468550    -0.86000
O755        O  0.21251862  0.64944122  0.39304451    -0.83000
C756        C  0.19978373  0.66849578  0.40392511     0.97500
O757        O  0.20353273  0.66522112  0.42074852    -0.83100
O758        O  0.23195258  0.64953981  0.45286016    -0.85700
C759        C  0.25457248  0.66858937  0.45370048     1.02000
O760        O  0.27777813  0.66545913  0.44335294    -0.78500
O761        O  0.31177668  0.65056861  0.41329114    -0.78600
C762        C  0.30141079  0.66910584  0.40134477     1.01900
Cr763      Cr  0.25226906  0.62468740  0.39574624     1.93700
Cr764      Cr  0.21637736  0.62480848  0.43160011     1.93200
Cr765      Cr  0.28821497  0.62534149  0.43170250     1.39100
O766        O  0.25232071  0.62482518  0.41968058    -1.23700
O767        O  0.46111979  0.89821356  0.35968649    -0.86000
O768        O  0.47576924  0.83597821  0.36192835    -0.83000
C769        C  0.45640274  0.82330500  0.35125255     0.97500
O770        O  0.45966072  0.82615201  0.33437715    -0.83100
O771        O  0.47494440  0.85318976  0.30177410    -0.85700
C772        C  0.45692103  0.87662386  0.30029823     1.02000
O773        O  0.46040916  0.89989568  0.31056766    -0.78500
O774        O  0.47653498  0.93439378  0.34070536    -0.78600
C775        C  0.45845088  0.92537775  0.35328014     1.02000
O776        O  0.02621925  0.91435931  0.36067151    -0.82000
O777        O  0.04124421  0.85176803  0.35973276    -0.83000
C778        C  0.04388779  0.82429277  0.35376867     0.97500
O779        O  0.02494247  0.81434413  0.34187856    -0.83100
O780        O  0.04022441  0.84664960  0.31088330    -0.85700
C781        C  0.04359999  0.86949589  0.30028686     1.02000
O782        O  0.02529112  0.89274560  0.30122266    -0.78500
O783        O  0.04165864  0.92264598  0.33282678    -0.78600
C784        C  0.04469174  0.92734382  0.34957959     1.01900
Cr785      Cr  0.00111326  0.87497099  0.35860995     1.93700
Cr786      Cr  0.00000137  0.83787474  0.32312909     1.93200
Cr787      Cr  0.00093593  0.90962728  0.32228981     1.39100
O788        O  0.00069714  0.87416400  0.33465853    -1.23700
O789        O  0.47494805  0.58256160  0.10920923    -0.86000
O790        O  0.03727085  0.59637040  0.11209845    -0.83000
C791        C  0.05031949  0.57821118  0.10092205     0.97500
O792        O  0.04767629  0.58269583  0.08413560    -0.83100
O793        O  0.01898589  0.59946783  0.05249275    -0.85700
C794        C  0.99575363  0.58118595  0.05154299     1.02000
O795        O  0.47232112  0.58492477  0.06170315    -0.78500
O796        O  0.43838046  0.60181176  0.09176375    -0.78600
C797        C  0.44756145  0.58138093  0.10291599     1.02000
O798        O  0.46003753  0.64830422  0.11198250    -0.86000
O799        O  0.02249654  0.66189819  0.11134820    -0.83000
C800        C  0.04960417  0.66498005  0.10483189     0.97500
O801        O  0.05921358  0.64688223  0.09248595    -0.83100
O802        O  0.02634586  0.66419896  0.06196924    -0.85700
C803        C  0.00316848  0.66778794  0.05159263     1.02000
O804        O  0.48031867  0.64912546  0.05235656    -0.78500
O805        O  0.45294450  0.66590827  0.08443365    -0.78600
C806        C  0.44903043  0.66859863  0.10126197     1.01900
Cr807      Cr  0.99872986  0.62235260  0.10938669     1.93700
Cr808      Cr  0.03536773  0.62339949  0.07365553     1.93200
Cr809      Cr  0.46366918  0.62531059  0.07346526     1.39100
O810        O  0.99939250  0.62370678  0.08550615    -1.23700
O811        O  0.20890448  0.84820759  0.14284411    -0.86000
O812        O  0.22224980  0.91056936  0.14026222    -0.83000
C813        C  0.20314637  0.92274980  0.15128542     0.97500
O814        O  0.20711582  0.91954660  0.16809007    -0.83100
O815        O  0.22490421  0.89253883  0.20021811    -0.85700
C816        C  0.20728462  0.86893244  0.20180162     1.02000
O817        O  0.21061895  0.84582434  0.19141744    -0.78500
O818        O  0.22686001  0.81218792  0.16115612    -0.78600
C819        C  0.20689336  0.82129488  0.14967603     1.02000
O820        O  0.27495337  0.83375864  0.14038034    -0.86000
O821        O  0.28817258  0.89638091  0.14131795    -0.83000
C822        C  0.29060940  0.92357780  0.14773792     0.97500
O823        O  0.27157017  0.93293881  0.15971807    -0.83100
O824        O  0.28938420  0.90081882  0.19052207    -0.85700
C825        C  0.29316552  0.87802236  0.20116233     1.02000
O826        O  0.27543339  0.85440335  0.20008870    -0.78500
O827        O  0.29117825  0.82557485  0.16817946    -0.78600
C828        C  0.29416415  0.82167110  0.15137988     1.01900
Cr829      Cr  0.24862522  0.87221837  0.14301964     1.93700
Cr830      Cr  0.24834031  0.90874214  0.17869344     1.93200
Cr831      Cr  0.25092020  0.83724913  0.17924845     1.39100
O832        O  0.24945543  0.87274177  0.16698395    -1.23700
C833        C  0.08064607  0.73735178  0.12839894    -0.11500
C834        C  0.11293804  0.73438411  0.12515997     0.05700
C835        C  0.12395963  0.70888772  0.11507753    -0.10200
C836        C  0.10324852  0.68658490  0.10845571    -0.11900
C837        C  0.07101065  0.68908924  0.11190113    -0.01700
C838        C  0.05981750  0.71467727  0.12193920    -0.10800
C839        C  0.13559912  0.75721099  0.13244453     0.05700
H840        H  0.14871943  0.70629707  0.11223152     0.07600
H841        H  0.11258445  0.66714890  0.10077405     0.11100
H842        H  0.03501651  0.71723069  0.12469229     0.11400
H843        H  0.07167788  0.75681560  0.13619213     0.07700
C844        C  0.13134541  0.78947597  0.12993879    -0.11500
C845        C  0.15450462  0.81053897  0.13551404    -0.10800
C846        C  0.18193782  0.79960865  0.14393263    -0.01700
C847        C  0.18554272  0.76740811  0.14694006    -0.11900
C848        C  0.16271542  0.74645466  0.14117158    -0.10300
H849        H  0.11062651  0.79825459  0.12318867     0.07700
H850        H  0.15102142  0.83530390  0.13321185     0.11400
H851        H  0.20635210  0.75829730  0.15344682     0.11100
H852        H  0.16634520  0.72169355  0.14342168     0.07600
C853        C  0.39268199  0.73643883  0.10419629    -0.11500
C854        C  0.39025306  0.74063131  0.12303426     0.05700
C855        C  0.40929736  0.72249334  0.13447406    -0.10200
C856        C  0.42889124  0.69955588  0.12733309    -0.11900
C857        C  0.43027560  0.69456573  0.10857909    -0.01700
C858        C  0.41268337  0.71379729  0.09703865    -0.10800
C859        C  0.36671888  0.76246647  0.13074333     0.05700
H860        H  0.40882069  0.72569912  0.14899541     0.07600
H861        H  0.44265595  0.68542948  0.13654956     0.11100
H862        H  0.41344804  0.71056974  0.08251297     0.11400
H863        H  0.37819018  0.74968509  0.09494645     0.07700
C864        C  0.35834938  0.79002738  0.12153308    -0.11500
C865        C  0.33461921  0.80928123  0.12822188    -0.10800
C866        C  0.31950170  0.80182365  0.14449306    -0.01700
C867        C  0.32827166  0.77487879  0.15398364    -0.11900
C868        C  0.35134780  0.75516273  0.14706489    -0.10300
H869        H  0.37006327  0.79676262  0.10914726     0.07700
H870        H  0.32829555  0.83019510  0.12080093     0.11400
H871        H  0.31657286  0.76857153  0.16646510     0.11100
H872        H  0.35648817  0.73378399  0.15431414     0.07600
C873        C  0.37189745  0.54070188  0.11469017    -0.11500
C874        C  0.38256893  0.51225605  0.12186511     0.05700
C875        C  0.41490309  0.50611639  0.12223306    -0.10200
C876        C  0.43622059  0.52855614  0.11605580    -0.11900
C877        C  0.42545837  0.55717031  0.10910696    -0.01700
C878        C  0.39309152  0.56281641  0.10823315    -0.10800
C879        C  0.36107898  0.98764251  0.12861237     0.05700
H880        H  0.42519862  0.98562262  0.12997838     0.07600
H881        H  0.46108742  0.52355997  0.11670230     0.11100
H882        H  0.38416315  0.58464103  0.10290882     0.11400
H883        H  0.34704594  0.54580713  0.11404743     0.07700
C884        C  0.33731603  0.99763109  0.14036711    -0.11500
C885        C  0.31474154  0.97670098  0.14660180    -0.10800
C886        C  0.31513299  0.94527256  0.14107544    -0.01700
C887        C  0.33910321  0.93514332  0.12936399    -0.11900
C888        C  0.36206042  0.95614479  0.12329618    -0.10300
H889        H  0.33439697  0.52396320  0.14487823     0.07700
H890        H  0.29672844  0.98531110  0.15564249     0.11400
H891        H  0.34011181  0.91106244  0.12491886     0.11100
H892        H  0.38014397  0.94800704  0.11414460     0.07600
C893        C  0.14850374  0.96361450  0.11868444    -0.11500
C894        C  0.13193275  0.98386316  0.13021123     0.05700
C895        C  0.13706996  0.98176867  0.14898830    -0.10200
C896        C  0.15931293  0.96098779  0.15595701    -0.11900
C897        C  0.17711073  0.94211698  0.14428550    -0.01700
C898        C  0.17090891  0.94310394  0.12562385    -0.10800
C899        C  0.10820354  0.50468533  0.12201721     0.05700
H900        H  0.12388139  0.49662924  0.15779446     0.07600
H901        H  0.16341578  0.96059535  0.17041150     0.11100
H902        H  0.18382343  0.92842748  0.11629649     0.11400
H903        H  0.14447982  0.96388238  0.10422398     0.07700
C904        C  0.11471183  0.51815354  0.10502422    -0.11500
C905        C  0.09536338  0.54141818  0.09789919    -0.10800
C906        C  0.06952892  0.55221392  0.10778221    -0.01700
C907        C  0.06272194  0.53869197  0.12463689    -0.11900
C908        C  0.08164736  0.51493614  0.13159768    -0.10300
H909        H  0.13927978  0.01750904  0.09896274     0.07700
H910        H  0.10122389  0.55172393  0.08494053     0.11400
H911        H  0.04266256  0.54645476  0.13241666     0.11100
H912        H  0.07549960  0.50472465  0.14451576     0.07600
C913        C  0.11072083  0.84214971  0.27051997    -0.11500
C914        C  0.11467472  0.86792024  0.25895065     0.05700
C915        C  0.09531511  0.89418383  0.26122343    -0.10200
C916        C  0.07245120  0.89468092  0.27470671    -0.11900
C917        C  0.06836648  0.86891969  0.28626187    -0.01700
C918        C  0.08783496  0.84266323  0.28407758    -0.10800
C919        C  0.13883471  0.86764894  0.24452328     0.05700
H920        H  0.09751605  0.91422783  0.25236879     0.07600
H921        H  0.05783082  0.91526016  0.27599658     0.11100
H922        H  0.08531804  0.82248445  0.29278783     0.11400
H923        H  0.12555763  0.82172598  0.26920862     0.07700
C924        C  0.15670018  0.89453843  0.24109312    -0.11500
C925        C  0.17880291  0.89485189  0.22720452    -0.10800
C926        C  0.18356840  0.86829331  0.21637845    -0.01700
C927        C  0.16591172  0.84124693  0.21987081    -0.11900
C928        C  0.14379934  0.84091180  0.23384947    -0.10300
H929        H  0.15374418  0.91532653  0.24925831     0.07700
H930        H  0.19215299  0.91601076  0.22494589     0.11400
H931        H  0.16915738  0.82037413  0.21180890     0.11100
H932        H  0.13016500  0.81993790  0.23608896     0.07600
C933        C  0.39297019  0.90541309  0.26853769    -0.11500
C934        C  0.38718074  0.87878799  0.25793620     0.05700
C935        C  0.40431918  0.85138105  0.26151481    -0.10200
C936        C  0.42673169  0.85061148  0.27531462    -0.11900
C937        C  0.43249996  0.87720666  0.28596125    -0.01700
C938        C  0.41526533  0.90459233  0.28243755    -0.10800
C939        C  0.36300936  0.87923077  0.24341092     0.05700
H940        H  0.40067016  0.83055826  0.25346295     0.07600
H941        H  0.43961248  0.82916620  0.27760565     0.11100
H942        H  0.41914642  0.92551673  0.29035434     0.11400
H943        H  0.37992083  0.92675933  0.26625573     0.07700
C944        C  0.34288318  0.85360467  0.24120330    -0.11500
C945        C  0.32044892  0.85339537  0.22748212    -0.10800
C946        C  0.31745835  0.87881596  0.21553122    -0.01700
C947        C  0.33739131  0.90466699  0.21777208    -0.11900
C948        C  0.35990136  0.90489948  0.23161060    -0.10300
H949        H  0.34426500  0.83372785  0.25024382     0.07700
H950        H  0.30535028  0.83319605  0.22628964     0.11400
H951        H  0.33563149  0.92466083  0.20883362     0.11100
H952        H  0.37520918  0.92492253  0.23290393     0.07600
C953        C  0.14401364  0.73787814  0.40148003    -0.11500
C954        C  0.13808848  0.73974339  0.38277881     0.05700
C955        C  0.15402487  0.71917482  0.37114552    -0.10200
C956        C  0.17442655  0.69657003  0.37802872    -0.11900
C957        C  0.17948324  0.69385830  0.39675542    -0.01700
C958        C  0.16444590  0.71513065  0.40840398    -0.10800
C959        C  0.11432736  0.76187350  0.37537194     0.05700
H960        H  0.15051482  0.72039499  0.35665606     0.07600
H961        H  0.18588068  0.68085356  0.36863311     0.11100
H962        H  0.16799526  0.71382832  0.42289007     0.11400
H963        H  0.13203442  0.75330625  0.41082032     0.07700
C964        C  0.09369392  0.75203133  0.36169452    -0.11500
C965        C  0.07109859  0.77233209  0.35466882    -0.10800
C966        C  0.06845434  0.80311119  0.36111360    -0.01700
C967        C  0.08910029  0.81307100  0.37479903    -0.11900
C968        C  0.11172602  0.79264814  0.38188830    -0.10300
H969        H  0.09465803  0.72833474  0.35658824     0.07700
H970        H  0.05553675  0.76378126  0.34423313     0.11400
H971        H  0.08771759  0.83663288  0.38008278     0.11100
H972        H  0.12739211  0.80102347  0.39232351     0.07600
C973        C  0.36834574  0.72673802  0.39749494    -0.11500
C974        C  0.36116559  0.74233617  0.38126266     0.05700
C975        C  0.33329747  0.73466618  0.37216971    -0.10200
C976        C  0.31354946  0.71132336  0.37887628    -0.11900
C977        C  0.32133490  0.69501657  0.39476574    -0.01700
C978        C  0.34870053  0.70330288  0.40414451    -0.10800
C979        C  0.38363129  0.76510947  0.37337584     0.05700
H980        H  0.32686436  0.74656449  0.35978367     0.07600
H981        H  0.29251299  0.70560821  0.37140695     0.11100
H982        H  0.35518674  0.69136345  0.41650948     0.11400
H983        H  0.38976722  0.73183236  0.40474735     0.07700
C984        C  0.40054920  0.78558743  0.38456248    -0.11500
C985        C  0.42379928  0.80484823  0.37731371    -0.10800
C986        C  0.43054012  0.80421066  0.35869691    -0.01700
C987        C  0.41282913  0.78464466  0.34739790    -0.11900
C988        C  0.38970380  0.76523422  0.35466642    -0.10300
H989        H  0.39603745  0.78648653  0.39897021     0.07700
H990        H  0.43672641  0.82002359  0.38633672     0.11400
H991        H  0.41743015  0.78366652  0.33300066     0.11100
H992        H  0.37737139  0.74949307  0.34569739     0.07600
C993        C  0.41200867  0.99935126  0.36228448    -0.11500
C994        C  0.39127964  0.98987642  0.37601377     0.05700
C995        C  0.39296539  0.95893333  0.38235209    -0.10200
C996        C  0.41457999  0.93787079  0.37490218    -0.11900
C997        C  0.43505731  0.94733713  0.36101170    -0.01700
C998        C  0.43358081  0.97838184  0.35487222    -0.10800
C999        C  0.37058211  0.51381927  0.38340601     0.05700
H1000       H  0.37721028  0.95087538  0.39282883     0.07600
H1001       H  0.41519395  0.91414132  0.38000255     0.11100
H1002       H  0.44920904  0.98658068  0.34436528     0.11400
H1003       H  0.41437011  0.52464186  0.35738850     0.07700
C1004       C  0.36545478  0.51622624  0.40214089    -0.11500
C1005       C  0.34421903  0.53820582  0.40898524    -0.10800
C1006       C  0.32759738  0.55799863  0.39718342    -0.01700
C1007       C  0.33240679  0.55507261  0.37845250    -0.11900
C1008       C  0.35366762  0.53329462  0.37165643    -0.10300
H1009       H  0.37834160  0.50154783  0.41149754     0.07700
H1010       H  0.34104693  0.53990289  0.42348821     0.11400
H1011       H  0.31988879  0.56982010  0.36897623     0.11100
H1012       H  0.35566805  0.03147978  0.35716316     0.07600
C1013       C  0.11509974  0.98176828  0.35231732    -0.11500
C1014       C  0.11323257  0.99207205  0.37037550     0.05700
C1015       C  0.08921106  0.98034099  0.38143198    -0.10200
C1016       C  0.06739587  0.95916040  0.37463232    -0.11900
C1017       C  0.06882402  0.94917064  0.35654073    -0.01700
C1018       C  0.09297371  0.96065019  0.34541848    -0.10800
C1019       C  0.13783186  0.51367174  0.37845785     0.05700
H1020       H  0.08944176  0.48561109  0.39644474     0.07600
H1021       H  0.04911291  0.95084540  0.38358707     0.11100
H1022       H  0.09471630  0.95337123  0.33143184     0.11400
H1023       H  0.13327448  0.99054983  0.34342960     0.07700
C1024       C  0.16976590  0.51304354  0.37367543    -0.11500
C1025       C  0.19075952  0.53500581  0.38088238    -0.10800
C1026       C  0.18032147  0.55803950  0.39306769    -0.01700
C1027       C  0.14838447  0.55883058  0.39765236    -0.11900
C1028       C  0.12746333  0.53709275  0.39040083    -0.10300
H1029       H  0.17698962  0.99470306  0.36562246     0.07700
H1030       H  0.21520744  0.53379395  0.37701913     0.11400
H1031       H  0.13940249  0.57647906  0.40677315     0.11100
H1032       H  0.10297163  0.53885642  0.39406396     0.07600
C1033       C  0.22071050  0.98025359  0.51900762    -0.11500
C1034       C  0.24842670  0.98662995  0.50940297     0.05700
C1035       C  0.27602929  0.97085452  0.51429508    -0.10200
C1036       C  0.27587952  0.94905760  0.52834801    -0.11900
C1037       C  0.24814452  0.94252883  0.53787072    -0.01700
C1038       C  0.22058543  0.95849940  0.53313927    -0.10800
C1039       C  0.24983821  0.51023472  0.49505185     0.05700
H1040       H  0.29768545  0.97499200  0.50706521     0.07600
H1041       H  0.29752633  0.93714484  0.53167670     0.11100
H1042       H  0.19885203  0.95392171  0.54020620     0.11400
H1043       H  0.19916751  0.99238016  0.51574240     0.07700
C1044       C  0.22394157  0.51387904  0.48353101    -0.11500
C1045       C  0.22411176  0.53662942  0.46994154    -0.10800
C1046       C  0.25010303  0.55639716  0.46769284    -0.01700
C1047       C  0.27619580  0.55240533  0.47908400    -0.11900
C1048       C  0.27610238  0.52949179  0.49257089    -0.10300
H1049       H  0.20400631  0.99624867  0.48322287     0.07700
H1050       H  0.20373479  0.53896566  0.46134065     0.11400
H1051       H  0.29663187  0.56719187  0.47769683     0.11100
H1052       H  0.29630390  0.52727590  0.50133638     0.07600
C1053       C  0.22870694  0.78372336  0.51166317    -0.11500
C1054       C  0.25493299  0.76463328  0.50868257     0.05700
C1055       C  0.28127540  0.76798964  0.51992685    -0.10200
C1056       C  0.28123653  0.78982568  0.53400417    -0.11900
C1057       C  0.25490255  0.80881124  0.53702229    -0.01700
C1058       C  0.22870369  0.80558967  0.52564419    -0.10800
C1059       C  0.25450148  0.74083708  0.49413191     0.05700
H1060       H  0.30168955  0.75333653  0.51803084     0.07600
H1061       H  0.30179163  0.79184227  0.54249892     0.11100
H1062       H  0.20808855  0.81998218  0.52752903     0.11400
H1063       H  0.20824223  0.78190816  0.50307145     0.07700
C1064       C  0.22786224  0.72215346  0.49144962    -0.11500
C1065       C  0.22777720  0.69890837  0.47819811    -0.10800
C1066       C  0.25427073  0.69394523  0.46729168    -0.01700
C1067       C  0.28066698  0.71312013  0.46970325    -0.11900
C1068       C  0.28080013  0.73625803  0.48303292    -0.10300
H1069       H  0.20735121  0.72502024  0.49989370     0.07700
H1070       H  0.20702126  0.68461023  0.47662083     0.11400
H1071       H  0.30136382  0.71001406  0.46144312     0.11100
H1072       H  0.30148530  0.75065942  0.48464125     0.07600
C1073       C  0.13256279  0.79283493  0.62727418    -0.11500
C1074       C  0.13511247  0.76134871  0.62188690     0.05700
C1075       C  0.15849854  0.75330152  0.60923029    -0.10200
C1076       C  0.17867560  0.77610870  0.60223866    -0.11900
C1077       C  0.17645893  0.80713568  0.60817152    -0.01700
C1078       C  0.15332837  0.81529903  0.62073547    -0.10800
C1079       C  0.11326363  0.73738615  0.62942432     0.05700
H1080       H  0.16161305  0.72936167  0.60490131     0.07600
H1081       H  0.19652858  0.76939949  0.59256380     0.11100
H1082       H  0.15094892  0.83927438  0.62523944     0.11400
H1083       H  0.11430454  0.80038323  0.63643815     0.07700
C1084       C  0.10079625  0.74090778  0.64695436    -0.11500
C1085       C  0.07841282  0.72011449  0.65357605    -0.10800
C1086       C  0.06843006  0.69473423  0.64307153    -0.01700
C1087       C  0.08194074  0.69006161  0.62595063    -0.11900
C1088       C  0.10387439  0.71133206  0.61911488    -0.10300
H1089       H  0.10818533  0.75983931  0.65564772     0.07700
H1090       H  0.06886325  0.72394360  0.66697883     0.11400
H1091       H  0.07470736  0.67061138  0.61757130     0.11100
H1092       H  0.11260505  0.70781819  0.60551956     0.07600
C1093       C  0.37177361  0.78088224  0.61163608    -0.11500
C1094       C  0.36284473  0.76178871  0.62617918     0.05700
C1095       C  0.33302598  0.76571297  0.63388823    -0.10200
C1096       C  0.31241168  0.78827507  0.62705461    -0.11900
C1097       C  0.32144704  0.80752444  0.61253048    -0.01700
C1098       C  0.35137159  0.80355291  0.60492703    -0.10800
C1099       C  0.38501678  0.73826176  0.63334110     0.05700
H1100       H  0.32560864  0.75114150  0.64508326     0.07600
H1101       H  0.28953003  0.79078130  0.63320841     0.11100
H1102       H  0.35913223  0.81803929  0.59377954     0.11400
H1103       H  0.39479940  0.77858098  0.60562583     0.07700
C1104       C  0.40147521  0.71864780  0.62143811    -0.11500
C1105       C  0.42410562  0.69798712  0.62799100    -0.10800
C1106       C  0.43078760  0.69658751  0.64659035    -0.01700
C1107       C  0.41372923  0.71566215  0.65855159    -0.11900
C1108       C  0.39101233  0.73628950  0.65198045    -0.10300
H1109       H  0.39697913  0.71951574  0.60702363     0.07700
H1110       H  0.43663404  0.68337491  0.61845527     0.11400
H1111       H  0.41840186  0.71515004  0.67295098     0.11100
H1112       H  0.37879552  0.75138225  0.66139723     0.07600
C1113       C  0.36061757  0.98549990  0.60380256    -0.11500
C1114       C  0.36346433  0.99049709  0.62248807     0.05700
C1115       C  0.34513297  0.97272952  0.63445063    -0.10200
C1116       C  0.32488058  0.94983037  0.62787048    -0.11900
C1117       C  0.32260225  0.94416721  0.60919948    -0.01700
C1118       C  0.34040717  0.96251019  0.59719996    -0.10800
C1119       C  0.38824343  0.51019917  0.63088833     0.05700
H1120       H  0.34552655  0.47603685  0.64982331     0.07600
H1121       H  0.31124433  0.93628111  0.63746550     0.11100
H1122       H  0.33917090  0.95871643  0.58276431     0.11400
H1123       H  0.37476350  0.99875448  0.59431326     0.07700
C1124       C  0.40677185  0.50198898  0.64584351    -0.11500
C1125       C  0.42929796  0.52265011  0.65246100    -0.10800
C1126       C  0.43354569  0.55206143  0.64434205    -0.01700
C1127       C  0.41483176  0.56032730  0.62944950    -0.11900
C1128       C  0.39249237  0.53952797  0.62273583    -0.10300
H1129       H  0.40532412  0.98044658  0.64935701     0.07700
H1130       H  0.44342023  0.51554974  0.66391511     0.11400
H1131       H  0.41760967  0.58278288  0.62287632     0.11100
H1132       H  0.37834676  0.54644175  0.61126107     0.07600
C1133       C  0.11065454  0.51436949  0.65108780    -0.11500
C1134       C  0.11278701  0.50906127  0.63238722     0.05700
C1135       C  0.09293658  0.52540541  0.62058118    -0.10200
C1136       C  0.07093045  0.54630169  0.62735851    -0.11900
C1137       C  0.06844489  0.55133460  0.64606509    -0.01700
C1138       C  0.08866395  0.53539135  0.65788840    -0.10800
C1139       C  0.13698890  0.98857651  0.62399336     0.05700
H1140       H  0.09448416  0.52208043  0.60609108     0.07600
H1141       H  0.05572402  0.55837000  0.61791886     0.11100
H1142       H  0.08717862  0.53878505  0.67237648     0.11400
H1143       H  0.12551601  0.50175186  0.66047883     0.07700
C1144       C  0.16761271  0.98643982  0.63082031    -0.11500
C1145       C  0.18819076  0.96363531  0.62431205    -0.10800
C1146       C  0.17846147  0.94245151  0.61091885    -0.01700
C1147       C  0.14788903  0.94480253  0.60401405    -0.11900
C1148       C  0.12740933  0.96764610  0.61046387    -0.10300
H1149       H  0.17344266  0.49990261  0.64263392     0.07700
H1150       H  0.21164180  0.96248071  0.62985364     0.11400
H1151       H  0.13964795  0.92880883  0.59372793     0.11100
H1152       H  0.10378541  0.96849669  0.60513920     0.07600
C1153       C  0.11246343  0.60422418  0.73248778    -0.11500
C1154       C  0.11556503  0.63034544  0.74397792     0.05700
C1155       C  0.09589174  0.65631912  0.74103109    -0.10200
C1156       C  0.07380343  0.65611331  0.72711731    -0.11900
C1157       C  0.07012724  0.62958622  0.71626271    -0.01700
C1158       C  0.08956968  0.60365189  0.71899332    -0.10800
C1159       C  0.13871903  0.63031491  0.75911220     0.05700
H1160       H  0.09683942  0.67660981  0.74972443     0.07600
H1161       H  0.05872752  0.67623822  0.72527687     0.11100
H1162       H  0.08721581  0.58307938  0.71056094     0.11400
H1163       H  0.12767278  0.58413371  0.73383939     0.07700
C1164       C  0.14751548  0.60217423  0.76762350    -0.11500
C1165       C  0.16950090  0.60208659  0.78159926    -0.10800
C1166       C  0.18253348  0.63017237  0.78778342    -0.01700
C1167       C  0.17337506  0.65836977  0.77969469    -0.11900
C1168       C  0.15208499  0.65841634  0.76535037    -0.10300
H1169       H  0.13724696  0.58011448  0.76368916     0.07700
H1170       H  0.17606685  0.58002971  0.78773256     0.11400
H1171       H  0.18343880  0.68030910  0.78408225     0.11100
H1172       H  0.14667278  0.68053276  0.75897782     0.07600
C1173       C  0.34506164  0.64668091  0.76246402    -0.11500
C1174       C  0.36373880  0.62000953  0.75987384     0.05700
C1175       C  0.35888041  0.59388139  0.77106860    -0.10200
C1176       C  0.33604241  0.59458773  0.78468210    -0.11900
C1177       C  0.31745905  0.62138147  0.78729786    -0.01700
C1178       C  0.32221405  0.64735325  0.77598090    -0.10800
C1179       C  0.38831892  0.61981530  0.74562762     0.05700
H1180       H  0.37309335  0.57307283  0.76949028     0.07600
H1181       H  0.33294117  0.57417354  0.79314354     0.11100
H1182       H  0.30824175  0.66831791  0.77755098     0.11400
H1183       H  0.34789609  0.66699561  0.75388616     0.07700
C1184       C  0.39294938  0.59349648  0.73456798    -0.11500
C1185       C  0.41560993  0.59387575  0.72087413    -0.10800
C1186       C  0.43423726  0.62053059  0.71804107    -0.01700
C1187       C  0.42973477  0.64670798  0.72920518    -0.11900
C1188       C  0.40706133  0.64635561  0.74281805    -0.10300
H1189       H  0.37866428  0.57280044  0.73630207     0.07700
H1190       H  0.41852720  0.57330988  0.71251519     0.11400
H1191       H  0.44377916  0.66756696  0.72744892     0.11100
H1192       H  0.40437769  0.66681793  0.75128076     0.07600
C1193       C  0.47237445  0.96512395  0.99435970    -0.11500
C1194       C  0.99380216  0.98996970  0.99439531     0.05700
C1195       C  0.01579586  0.99227080  0.98027872    -0.10200
C1196       C  0.01711637  0.96951007  0.96681184    -0.11900
C1197       C  0.99619860  0.94428460  0.96709647    -0.01700
C1198       C  0.47341735  0.94263813  0.98077449    -0.10800
C1199       C  0.99594355  0.51017147  0.01074763     0.05700
H1200       H  0.03209866  0.01159478  0.97967038     0.07600
H1201       H  0.03458995  0.97156649  0.95624801     0.11100
H1202       H  0.45693407  0.92344370  0.98130419     0.11400
H1203       H  0.45539167  0.96245216  0.00513099     0.07700
C1204       C  0.46853659  0.51644424  0.02065294    -0.11500
C1205       C  0.46854479  0.53912631  0.03419855    -0.10800
C1206       C  0.99585695  0.55615942  0.03792169    -0.01700
C1207       C  0.02334225  0.54957295  0.02821775    -0.11900
C1208       C  0.02342895  0.52670273  0.01485016    -0.10300
H1209       H  0.44689522  0.50435555  0.01767587     0.07700
H1210       H  0.44701711  0.54377296  0.04147994     0.11400
H1211       H  0.04485094  0.56209772  0.03094497     0.11100
H1212       H  0.04447591  0.01707514  0.01039236     0.07600
C1213       C  0.01972839  0.78873852  0.99621676    -0.11500
C1214       C  0.99937739  0.76298676  0.99593589     0.05700
C1215       C  0.47778720  0.76035850  0.98159545    -0.10200
C1216       C  0.47648391  0.78304826  0.96797305    -0.11900
C1217       C  0.99700223  0.80862854  0.96827313    -0.01700
C1218       C  0.01866964  0.81115794  0.98252116    -0.10800
C1219       C  0.00053968  0.73914314  0.01059551     0.05700
H1220       H  0.46212283  0.74055874  0.98074886     0.07600
H1221       H  0.45966582  0.78038705  0.95711159     0.11100
H1222       H  0.03465659  0.83073682  0.98323212     0.11400
H1223       H  0.03621844  0.79191049  0.00718750     0.07700
C1224       C  0.02918921  0.73052182  0.01865444    -0.11500
C1225       C  0.03014003  0.70787389  0.03231242    -0.10800
C1226       C  0.00253213  0.69307486  0.03799072    -0.01700
C1227       C  0.47391653  0.70190578  0.03011010    -0.11900
C1228       C  0.47290021  0.72478377  0.01667994    -0.10300
H1229       H  0.05101076  0.74077585  0.01415799     0.07700
H1230       H  0.05252465  0.70138817  0.03809360     0.11400
H1231       H  0.45217699  0.69115655  0.03437689     0.11100
H1232       H  0.45035783  0.73134538  0.01115651     0.07600
C1233       C  0.09710388  0.75857360  0.89854548    -0.11500
C1234       C  0.11537885  0.76505341  0.88306146     0.05700
C1235       C  0.11200922  0.79451044  0.87477285    -0.10200
C1236       C  0.09114015  0.81661501  0.88161420    -0.11900
C1237       C  0.07372123  0.81040836  0.89727716    -0.01700
C1238       C  0.07680442  0.78119058  0.90571438    -0.10800
C1239       C  0.13839573  0.74181553  0.87574189     0.05700
H1240       H  0.12604012  0.80106523  0.86320701     0.07600
H1241       H  0.08933368  0.83905766  0.87491282     0.11100
H1242       H  0.06321845  0.77571406  0.91768976     0.11400
H1243       H  0.09828193  0.73603282  0.90513172     0.07700
C1244       C  0.15331584  0.72005661  0.88719311    -0.11500
C1245       C  0.17559508  0.69912742  0.88034230    -0.10800
C1246       C  0.18413956  0.69998009  0.86199865    -0.01700
C1247       C  0.16947387  0.72159154  0.85054137    -0.11900
C1248       C  0.14651775  0.74182812  0.85723281    -0.10300
H1249       H  0.14842446  0.71953361  0.90154766     0.07700
H1250       H  0.18678619  0.68280533  0.88950152     0.11400
H1251       H  0.17537565  0.72245236  0.83629505     0.11100
H1252       H  0.13507495  0.75733211  0.84775119     0.07600
C1253       C  0.38091593  0.78114139  0.89217558    -0.11500
C1254       C  0.39138738  0.76079099  0.87860464     0.05700
C1255       C  0.42225513  0.76342365  0.87219833    -0.10200
C1256       C  0.44228092  0.78626005  0.87929729    -0.11900
C1257       C  0.43153361  0.80690614  0.89274548    -0.01700
C1258       C  0.40070048  0.80390732  0.89915795    -0.10800
C1259       C  0.36945043  0.73745715  0.87115971     0.05700
H1260       H  0.43082227  0.74779699  0.86179927     0.07600
H1261       H  0.46598951  0.78794045  0.87416613     0.11100
H1262       H  0.39161197  0.81942479  0.90946595     0.11400
H1263       H  0.35708538  0.77981547  0.89716871     0.07700
C1264       C  0.35104119  0.71959974  0.88299330    -0.11500
C1265       C  0.32749370  0.70032402  0.87631390    -0.10800
C1266       C  0.32178743  0.69844449  0.85763033    -0.01700
C1267       C  0.34096170  0.71548604  0.84569081    -0.11900
C1268       C  0.36468647  0.73482163  0.85242550    -0.10300
H1269       H  0.35451390  0.72104614  0.89747716     0.07700
H1270       H  0.31341539  0.68722565  0.88586758     0.11400
H1271       H  0.33717910  0.71442225  0.83122534     0.11100
H1272       H  0.37848589  0.74863059  0.84306100     0.07600
C1273       C  0.35600394  0.54140729  0.88511293    -0.11500
C1274       C  0.36212347  0.51307767  0.87614064     0.05700
C1275       C  0.34614265  0.50656809  0.85996391    -0.10200
C1276       C  0.32425229  0.52762085  0.85302048    -0.11900
C1277       C  0.31788843  0.55580985  0.86203267    -0.01700
C1278       C  0.33422725  0.56266698  0.87806085    -0.10800
C1279       C  0.38034151  0.98638260  0.88267278     0.05700
H1280       H  0.33671917  0.97720056  0.85614564     0.07600
H1281       H  0.31211925  0.52167990  0.84063411     0.11100
H1282       H  0.32978967  0.58421535  0.88532234     0.11400
H1283       H  0.36817264  0.54717286  0.89750730     0.07700
C1284       C  0.39533539  0.96508597  0.87107978    -0.11500
C1285       C  0.41646325  0.94319814  0.87792241    -0.10800
C1286       C  0.42312658  0.94203543  0.89653083    -0.01700
C1287       C  0.40834584  0.96344917  0.90814735    -0.11900
C1288       C  0.38717204  0.98540602  0.90128229    -0.10300
H1289       H  0.39100782  0.96553565  0.85664968     0.07700
H1290       H  0.42747549  0.92704673  0.86859498     0.11400
H1291       H  0.41300205  0.96313202  0.92254591     0.11100
H1292       H  0.37573023  0.00126550  0.91060262     0.07600
C1293       C  0.15309680  0.53434950  0.88643711    -0.11500
C1294       C  0.13523405  0.51514691  0.87498368     0.05700
C1295       C  0.14046384  0.51665792  0.85622307    -0.10200
C1296       C  0.16329841  0.53661836  0.84908880    -0.11900
C1297       C  0.18143559  0.55554732  0.86056208    -0.01700
C1298       C  0.17591246  0.55432136  0.87931278    -0.10800
C1299       C  0.11066828  0.99433897  0.88366719     0.05700
H1300       H  0.12738735  0.50181673  0.84707774     0.07600
H1301       H  0.16706788  0.53686066  0.83460191     0.11100
H1302       H  0.18934267  0.56871655  0.88852521     0.11400
H1303       H  0.15543599  0.02840175  0.90144149     0.07700
C1304       C  0.12019745  0.97327381  0.89720433    -0.11500
C1305       C  0.09973377  0.95030150  0.90360400    -0.10800
C1306       C  0.06920196  0.94773524  0.89661949    -0.01700
C1307       C  0.05927372  0.96944417  0.88354352    -0.11900
C1308       C  0.07977855  0.99246704  0.87713607    -0.10300
H1309       H  0.14387377  0.97381047  0.90243427     0.07700
H1310       H  0.10812983  0.93407700  0.91375580     0.11400
H1311       H  0.03581593  0.96833579  0.87803107     0.11100
H1312       H  0.07601104  0.50224009  0.86277473     0.07600
O1313       O  0.54166207  0.35379829  0.89364646    -0.86000
O1314       O  0.97933558  0.33587825  0.89386689    -0.83000
C1315       C  0.95201528  0.33176032  0.89993441     0.97500
O1316       O  0.94115870  0.34981696  0.91192080    -0.83100
O1317       O  0.97465836  0.33321493  0.94222268    -0.85700
C1318       C  0.49725222  0.33130589  0.95314980     1.02000
O1319       O  0.51862904  0.35174250  0.95296189    -0.78500
O1320       O  0.54943313  0.33770900  0.92150800    -0.78600
C1321       C  0.55491726  0.33561290  0.90481646     1.02000
O1322       O  0.52223395  0.41810052  0.89548069    -0.86000
O1323       O  0.96041037  0.40076613  0.89296593    -0.83000
C1324       C  0.94623634  0.41838189  0.90409605     0.97500
O1325       O  0.94916130  0.41413069  0.92090863    -0.83100
O1326       O  0.97722743  0.39759775  0.95303368    -0.85700
C1327       C  0.49872394  0.41778880  0.95421200     1.02000
O1328       O  0.52198078  0.41678051  0.94374936    -0.78500
O1329       O  0.55869257  0.40310112  0.91438715    -0.78600
C1330       C  0.54898716  0.42183507  0.90237774     1.01900
Cr1331     Cr  0.00076266  0.37698730  0.89575372     1.93700
Cr1332     Cr  0.96326076  0.37382342  0.93115124     1.93200
Cr1333     Cr  0.53457857  0.37726200  0.93221701     1.39100
O1334       O  0.49951447  0.37605082  0.91964740    -1.23700
O1335       O  0.79003811  0.10301858  0.86007315    -0.86000
O1336       O  0.77731103  0.16584948  0.86171707    -0.83000
C1337       C  0.79548743  0.17860918  0.85041482     0.97500
O1338       O  0.79114455  0.17502713  0.83367640    -0.83100
O1339       O  0.77383303  0.14549028  0.80226469    -0.85700
C1340       C  0.79162288  0.12187205  0.80119200     1.02000
O1341       O  0.78766367  0.09885726  0.81164889    -0.78500
O1342       O  0.77141625  0.06637985  0.84251612    -0.78600
C1343       C  0.79111966  0.07546520  0.85411205     1.02000
O1344       O  0.72427885  0.08938972  0.86321805    -0.86000
O1345       O  0.71192159  0.15241986  0.86171343    -0.83000
C1346       C  0.70918749  0.17930563  0.85491020     0.97500
O1347       O  0.72649985  0.18775489  0.84188139    -0.83100
O1348       O  0.70929922  0.15391483  0.81190617    -0.85700
C1349       C  0.70492178  0.13028505  0.80206800     1.02000
O1350       O  0.72262771  0.10674338  0.80324682    -0.78500
O1351       O  0.70683294  0.08012376  0.83586244    -0.78600
C1352       C  0.70442682  0.07682486  0.85278929     1.01900
Cr1353     Cr  0.75078954  0.12760020  0.85975280     1.93700
Cr1354     Cr  0.75010224  0.16272115  0.82342371     1.93200
Cr1355     Cr  0.74732025  0.09093912  0.82421496     1.39100
O1356       O  0.74929164  0.12717480  0.83579525    -1.23700
O1357       O  0.78811482  0.40045494  0.61384582    -0.86000
O1358       O  0.72622561  0.41581774  0.61084798    -0.83000
C1359       C  0.69909607  0.41809873  0.60435408     0.97500
O1360       O  0.68973234  0.39904574  0.59246666    -0.83100
O1361       O  0.72430582  0.41489376  0.56240866    -0.85700
C1362       C  0.74786528  0.41778948  0.55223167     1.02000
O1363       O  0.77084675  0.39926796  0.55376695    -0.78500
O1364       O  0.79796957  0.41553591  0.58608876    -0.78600
C1365       C  0.80143520  0.41893206  0.60291225     1.02000
O1366       O  0.77137898  0.33557356  0.61257023    -0.86000
O1367       O  0.70872671  0.35132886  0.61297751    -0.83000
C1368       C  0.69666527  0.33213791  0.60198577     0.97500
O1369       O  0.70199561  0.33432402  0.58526720    -0.83100
O1370       O  0.73109975  0.35016460  0.55350042    -0.85700
C1371       C  0.75388757  0.33133486  0.55284117     1.02000
O1372       O  0.77677583  0.33452105  0.56347025    -0.78500
O1373       O  0.80880251  0.35104517  0.59433424    -0.78600
C1374       C  0.79875774  0.33262533  0.60641564     1.01900
Cr1375     Cr  0.74867641  0.37570860  0.61074349     1.93700
Cr1376     Cr  0.71441264  0.37465556  0.57435878     1.93200
Cr1377     Cr  0.78591159  0.37507424  0.57528975     1.39100
O1378       O  0.74970860  0.37510840  0.58679399    -1.23700
O1379       O  0.54009484  0.14753444  0.64379336    -0.86000
O1380       O  0.52435403  0.08563738  0.64181695    -0.83000
C1381       C  0.54367628  0.07298693  0.65254682     0.97500
O1382       O  0.54081508  0.07667183  0.66937826    -0.83100
O1383       O  0.52537663  0.10363272  0.70171237    -0.85700
C1384       C  0.54310762  0.12709822  0.70325341     1.02000
O1385       O  0.53980428  0.15059474  0.69319423    -0.78500
O1386       O  0.52542723  0.18406623  0.66287080    -0.78600
C1387       C  0.54376103  0.17421079  0.65064357     1.02000
O1388       O  0.97544647  0.16506387  0.64244794    -0.86000
O1389       O  0.95937630  0.10292496  0.64397930    -0.83000
C1390       C  0.95669104  0.07559187  0.65011898     0.97500
O1391       O  0.97575948  0.06550646  0.66186580    -0.83100
O1392       O  0.96023697  0.09776045  0.69280461    -0.85700
C1393       C  0.95684830  0.12080721  0.70326938     1.02000
O1394       O  0.97493893  0.14414161  0.70205367    -0.78500
O1395       O  0.95981069  0.17321818  0.67023526    -0.78600
C1396       C  0.95663152  0.17760341  0.65350015     1.01900
Cr1397     Cr  0.49980743  0.12524978  0.64488395     1.93700
Cr1398     Cr  0.50049672  0.08865657  0.68052760     1.93200
Cr1399     Cr  0.49996476  0.16031042  0.68109524     1.39100
O1400       O  0.50015005  0.12477654  0.66887678    -1.23700
O1401       O  0.79009584  0.09995741  0.39299421    -0.86000
O1402       O  0.72759748  0.08436622  0.39491854    -0.83000
C1403       C  0.69998951  0.08217458  0.40082106     0.97500
O1404       O  0.69036561  0.10093395  0.41285816    -0.83100
O1405       O  0.72448968  0.08476684  0.44322926    -0.85700
C1406       C  0.74784305  0.08156174  0.45353139     1.02000
O1407       O  0.77056246  0.10052729  0.45263250    -0.78500
O1408       O  0.80016896  0.08554975  0.42082983    -0.78600
C1409       C  0.80383947  0.08192243  0.40403073     1.02000
O1410       O  0.77296558  0.16487297  0.39417550    -0.86000
O1411       O  0.71074774  0.14956210  0.39301239    -0.83000
C1412       C  0.69797516  0.16859013  0.40389088     0.97500
O1413       O  0.70196110  0.16561686  0.42071866    -0.83100
O1414       O  0.73007970  0.14944001  0.45296748    -0.85700
C1415       C  0.75275232  0.16836001  0.45412675     1.02000
O1416       O  0.77579350  0.16579960  0.44355361    -0.78500
O1417       O  0.80985052  0.15088169  0.41314317    -0.78600
C1418       C  0.79994437  0.16870833  0.40069935     1.01900
Cr1419     Cr  0.75037214  0.12467578  0.39564741     1.93700
Cr1420     Cr  0.71450572  0.12516986  0.43153099     1.93200
Cr1421     Cr  0.78632118  0.12568333  0.43160752     1.39100
O1422       O  0.75047226  0.12517916  0.41958935    -1.23700
O1423       O  0.96071384  0.39870091  0.35916705    -0.86000
O1424       O  0.97363362  0.33619966  0.36135543    -0.83000
C1425       C  0.95486172  0.32353907  0.35028322     0.97500
O1426       O  0.95879555  0.32687459  0.33349574    -0.83100
O1427       O  0.97671126  0.35363380  0.30135891    -0.85700
C1428       C  0.95866947  0.37696349  0.29971453     1.02000
O1429       O  0.96196138  0.40037078  0.30995520    -0.78500
O1430       O  0.97758174  0.43469580  0.34048313    -0.78600
C1431       C  0.95897914  0.42597065  0.35285910     1.02000
O1432       O  0.52616933  0.41363256  0.36132833    -0.82000
O1433       O  0.53959064  0.35081606  0.36026695    -0.83000
C1434       C  0.54180968  0.32334364  0.35429719     0.97500
O1435       O  0.52302384  0.31375115  0.34227415    -0.83100
O1436       O  0.54112063  0.34579881  0.31167560    -0.85700
C1437       C  0.54493131  0.36837853  0.30094411     1.02000
O1438       O  0.52714468  0.39204611  0.30178513    -0.78500
O1439       O  0.54270964  0.42170485  0.33366286    -0.78600
C1440       C  0.54539123  0.42619943  0.35047276     1.01900
Cr1441     Cr  0.50010679  0.37474207  0.35866740     1.93700
Cr1442     Cr  0.50000124  0.33785430  0.32312581     1.93200
Cr1443     Cr  0.50221173  0.40949688  0.32241546     1.39100
O1444       O  0.50075781  0.37407332  0.33473081    -1.23700
O1445       O  0.97488642  0.08395938  0.10980782    -0.86000
O1446       O  0.53730557  0.09794830  0.11224374    -0.83000
C1447       C  0.55072365  0.07976970  0.10123112     0.97500
O1448       O  0.54764738  0.08347359  0.08440720    -0.83100
O1449       O  0.51838477  0.09886067  0.05265233    -0.85700
C1450       C  0.49473461  0.08117589  0.05159366     1.02000
O1451       O  0.97135934  0.08516020  0.06176979    -0.78500
O1452       O  0.93812135  0.10217295  0.09212844    -0.78600
C1453       C  0.94757154  0.08208915  0.10344514     1.02000
O1454       O  0.96003840  0.14991233  0.11192894    -0.86000
O1455       O  0.52265562  0.16337659  0.11080465    -0.83000
C1456       C  0.54973708  0.16613446  0.10417281     0.97500
O1457       O  0.55893309  0.14795829  0.09176411    -0.83100
O1458       O  0.52577312  0.16374580  0.06105901    -0.85700
C1459       C  0.50248405  0.16702618  0.05073815     1.02000
O1460       O  0.97910890  0.14914679  0.05216108    -0.78500
O1461       O  0.95218902  0.16641656  0.08423467    -0.78600
C1462       C  0.94877584  0.16980047  0.10104547     1.01900
Cr1463     Cr  0.49868769  0.12381499  0.10935584     1.93700
Cr1464     Cr  0.53487703  0.12362160  0.07340568     1.93200
Cr1465     Cr  0.96296673  0.12562117  0.07352455     1.39100
O1466       O  0.49897560  0.12435224  0.08541007    -1.23700
O1467       O  0.70986384  0.34866806  0.14263614    -0.86000
O1468       O  0.72228546  0.41128691  0.14075123    -0.83000
C1469       C  0.70280751  0.42292931  0.15173839     0.97500
O1470       O  0.70666821  0.41977139  0.16856760    -0.83100
O1471       O  0.72425886  0.39175570  0.20045256    -0.85700
C1472       C  0.70676435  0.36796575  0.20160464     1.02000
O1473       O  0.71065332  0.34512121  0.19109462    -0.78500
O1474       O  0.72821924  0.31246879  0.16068913    -0.78600
C1475       C  0.70830437  0.32149431  0.14915931     1.02000
O1476       O  0.77616508  0.33544634  0.14056992    -0.86000
O1477       O  0.78825343  0.39807820  0.14219740    -0.83000
C1478       C  0.79024410  0.42517914  0.14877334     0.97500
O1479       O  0.77097302  0.43414116  0.16071097    -0.83100
O1480       O  0.78899959  0.40098463  0.19105141    -0.85700
C1481       C  0.79342482  0.37766929  0.20122973     1.02000
O1482       O  0.77523468  0.35439490  0.20035746    -0.78500
O1483       O  0.79213415  0.32706918  0.16837078    -0.78600
C1484       C  0.79555518  0.32365591  0.15156853     1.01900
Cr1485     Cr  0.74914986  0.37334674  0.14333309     1.93700
Cr1486     Cr  0.74785352  0.40900118  0.17928696     1.93200
Cr1487     Cr  0.75137265  0.33752904  0.17920261     1.39100
O1488       O  0.74948354  0.37332498  0.16726435    -1.23700
C1489       C  0.58268899  0.23651505  0.12894253    -0.11500
C1490       C  0.61465809  0.23410109  0.12464689     0.05700
C1491       C  0.62488311  0.20956977  0.11354729    -0.10200
C1492       C  0.60364491  0.18781053  0.10682819    -0.11900
C1493       C  0.57168814  0.18984527  0.11123278    -0.01700
C1494       C  0.56136429  0.21437686  0.12239929    -0.10800
C1495       C  0.63768265  0.25682079  0.13167357     0.05700
H1496       H  0.64938001  0.20740762  0.10992037     0.07600
H1497       H  0.61237410  0.16917223  0.09829938     0.11100
H1498       H  0.53685698  0.21652605  0.12598708     0.11400
H1499       H  0.57435247  0.25521500  0.13755896     0.07700
C1500       C  0.63279809  0.28911155  0.12975115    -0.11500
C1501       C  0.65585960  0.31031205  0.13526090    -0.10800
C1502       C  0.68384334  0.29950779  0.14308790    -0.01700
C1503       C  0.68828330  0.26721690  0.14536863    -0.11900
C1504       C  0.66554803  0.24610437  0.13960016    -0.10300
H1505       H  0.61153786  0.29784742  0.12357291     0.07700
H1506       H  0.65176375  0.33511434  0.13349313     0.11400
H1507       H  0.70958916  0.25821711  0.15137536     0.11100
H1508       H  0.66973132  0.22130071  0.14131526     0.07600
C1509       C  0.89107864  0.23654577  0.10395537    -0.11500
C1510       C  0.89168813  0.24344365  0.12257330     0.05700
C1511       C  0.91310253  0.22747855  0.13369532    -0.10200
C1512       C  0.93206161  0.20395313  0.12659623    -0.11900
C1513       C  0.93046105  0.19626342  0.10816210    -0.01700
C1514       C  0.91047872  0.21337402  0.09679952    -0.10800
C1515       C  0.86871495  0.26560877  0.13052725     0.05700
H1516       H  0.91493460  0.23280133  0.14796814     0.07600
H1517       H  0.94775621  0.19153263  0.13560038     0.11100
H1518       H  0.90890198  0.20800734  0.08251030     0.11400
H1519       H  0.87468913  0.24804374  0.09498527     0.07700
C1520       C  0.85788777  0.29150411  0.12059001    -0.11500
C1521       C  0.83422115  0.31058219  0.12750585    -0.10800
C1522       C  0.82150457  0.30458954  0.14465383    -0.01700
C1523       C  0.83300107  0.27954321  0.15490194    -0.11900
C1524       C  0.85609851  0.26001847  0.14783179    -0.10300
H1525       H  0.86750263  0.29694544  0.10741225     0.07700
H1526       H  0.82587633  0.33006279  0.11947040     0.11400
H1527       H  0.82329367  0.27435741  0.16810860     0.11100
H1528       H  0.86325125  0.23994804  0.15573044     0.07600
C1529       C  0.87266467  0.03805479  0.11316682    -0.11500
C1530       C  0.88374878  0.01072337  0.12147145     0.05700
C1531       C  0.91618372  0.00648444  0.12353526    -0.10200
C1532       C  0.93711482  0.02972484  0.11779104    -0.11900
C1533       C  0.92591718  0.05721503  0.10957010    -0.01700
C1534       C  0.89348880  0.06090041  0.10713093    -0.10800
C1535       C  0.85982953  0.48950020  0.12923988     0.05700
H1536       H  0.92365913  0.48434243  0.12771141     0.07600
H1537       H  0.96203061  0.02617135  0.11972221     0.11100
H1538       H  0.88412951  0.08175393  0.10083970     0.11400
H1539       H  0.84773555  0.04173657  0.11137048     0.07700
C1540       C  0.83584625  0.49968909  0.14082456    -0.11500
C1541       C  0.81353208  0.47869379  0.14731264    -0.10800
C1542       C  0.81453280  0.44707097  0.14221758    -0.01700
C1543       C  0.83880167  0.43677031  0.13080728    -0.11900
C1544       C  0.86137262  0.45778686  0.12446395    -0.10300
H1545       H  0.83622610  0.02175950  0.14472079     0.07700
H1546       H  0.79524527  0.48735619  0.15615225     0.11400
H1547       H  0.84028912  0.41251598  0.12674214     0.11100
H1548       H  0.87961188  0.44942426  0.11548981     0.07600
C1549       C  0.64636387  0.46030572  0.11881750    -0.11500
C1550       C  0.62992444  0.48122109  0.13000113     0.05700
C1551       C  0.63583463  0.48072110  0.14875012    -0.10200
C1552       C  0.65864115  0.46086289  0.15597974    -0.11900
C1553       C  0.67631709  0.44142894  0.14459010    -0.01700
C1554       C  0.66943127  0.44082813  0.12600172    -0.10800
C1555       C  0.61051747  0.00794073  0.12257339     0.05700
H1556       H  0.62487589  0.99708031  0.15828209     0.07600
H1557       H  0.66331152  0.46168245  0.17037018     0.11100
H1558       H  0.68224800  0.42562626  0.11691424     0.11400
H1559       H  0.64178948  0.45928227  0.10442473     0.07700
C1560       C  0.61789346  0.02298960  0.10616050    -0.11500
C1561       C  0.59809668  0.04586482  0.09900691    -0.10800
C1562       C  0.57088506  0.05467060  0.10830420    -0.01700
C1563       C  0.56354341  0.04000400  0.12475692    -0.11900
C1564       C  0.58298653  0.01664849  0.13173979    -0.10300
H1565       H  0.63529500  0.51145520  0.09742035     0.07700
H1566       H  0.60446506  0.05725339  0.08643745     0.11400
H1567       H  0.54254135  0.04639114  0.13211723     0.11100
H1568       H  0.57633061  0.00530765  0.14425498     0.07600
C1569       C  0.61208705  0.34044510  0.27126129    -0.11500
C1570       C  0.61425454  0.36506539  0.25870456     0.05700
C1571       C  0.59345056  0.39035476  0.26019106    -0.10200
C1572       C  0.57135385  0.39138323  0.27401684    -0.11900
C1573       C  0.56919774  0.36700398  0.28667146    -0.01700
C1574       C  0.58972757  0.34140189  0.28514364    -0.10800
C1575       C  0.63830042  0.36511285  0.24420951     0.05700
H1576       H  0.59403357  0.40935112  0.25052165     0.07600
H1577       H  0.55572986  0.41130561  0.27466793     0.11100
H1578       H  0.58855970  0.32221102  0.29467180     0.11400
H1579       H  0.62798138  0.32073881  0.27052683     0.07700
C1580       C  0.65352771  0.39311452  0.23964363    -0.11500
C1581       C  0.67535275  0.39395143  0.22566024    -0.10800
C1582       C  0.68267739  0.36677420  0.21592208    -0.01700
C1583       C  0.66760815  0.33863570  0.22045325    -0.11900
C1584       C  0.64567825  0.33778808  0.23454114    -0.10300
H1585       H  0.64878723  0.41444313  0.24701844     0.07700
H1586       H  0.68659785  0.41597840  0.22252697     0.11400
H1587       H  0.67293286  0.31728752  0.21322180     0.11100
H1588       H  0.63412010  0.31592380  0.23765796     0.07600
C1589       C  0.89408869  0.40348393  0.26768850    -0.11500
C1590       C  0.88978711  0.37687131  0.25678564     0.05700
C1591       C  0.90792643  0.35013862  0.26043884    -0.10200
C1592       C  0.92994174  0.35014781  0.27446346    -0.11900
C1593       C  0.93446636  0.37687411  0.28523645    -0.01700
C1594       C  0.91611972  0.40348636  0.28174288    -0.10800
C1595       C  0.86614593  0.37683845  0.24189264     0.05700
H1596       H  0.90551406  0.32931122  0.25225670     0.07600
H1597       H  0.94362631  0.32918444  0.27677079     0.11100
H1598       H  0.91889366  0.42439725  0.28980277     0.11400
H1599       H  0.88012389  0.42428069  0.26550746     0.07700
C1600       C  0.84804371  0.35008031  0.23843762    -0.11500
C1601       C  0.82491544  0.35037253  0.22506343    -0.10800
C1602       C  0.81916729  0.37741815  0.21474957    -0.01700
C1603       C  0.83778854  0.40394847  0.21780605    -0.11900
C1604       C  0.86098222  0.40366290  0.23123872    -0.10300
H1605       H  0.85110542  0.32909345  0.24642243     0.07700
H1606       H  0.81118334  0.32940452  0.22299474     0.11400
H1607       H  0.83417183  0.42504822  0.20999620     0.11100
H1608       H  0.87491169  0.42449290  0.23327499     0.07600
C1609       C  0.64111125  0.23674788  0.40155308    -0.11500
C1610       C  0.63489995  0.23826771  0.38290256     0.05700
C1611       C  0.65068061  0.21775748  0.37120150    -0.10200
C1612       C  0.67163205  0.19565374  0.37802338    -0.11900
C1613       C  0.67718799  0.19341663  0.39672854    -0.01700
C1614       C  0.66199686  0.21447420  0.40841743    -0.10800
C1615       C  0.61121850  0.26031954  0.37565275     0.05700
H1616       H  0.64668994  0.21873802  0.35674456     0.07600
H1617       H  0.68311821  0.17996419  0.36862071     0.11100
H1618       H  0.66584100  0.21341084  0.42287970     0.11400
H1619       H  0.62910974  0.25218651  0.41088476     0.07700
C1620       C  0.58932956  0.25008464  0.36278195    -0.11500
C1621       C  0.56684888  0.27056634  0.35589516    -0.10800
C1622       C  0.56576754  0.30181772  0.36168693    -0.01700
C1623       C  0.58763746  0.31209047  0.37460301    -0.11900
C1624       C  0.61010847  0.29150359  0.38155240    -0.10300
H1625       H  0.58934568  0.22605016  0.35820050     0.07700
H1626       H  0.55023867  0.26184257  0.34605730     0.11400
H1627       H  0.58744025  0.33604898  0.37931692     0.11100
H1628       H  0.62685188  0.30003110  0.39136843     0.07600
C1629       C  0.87008424  0.22163789  0.39417204    -0.11500
C1630       C  0.86165604  0.23867511  0.37866344     0.05700
C1631       C  0.83243925  0.23297205  0.37058417    -0.10200
C1632       C  0.81206660  0.21067186  0.37791415    -0.11900
C1633       C  0.82070252  0.19337610  0.39333231    -0.01700
C1634       C  0.84989714  0.19923229  0.40140086    -0.10800
C1635       C  0.88360360  0.26209466  0.37102212     0.05700
H1636       H  0.82527161  0.24594274  0.35870006     0.07600
H1637       H  0.78972185  0.20672006  0.37137932     0.11100
H1638       H  0.85729405  0.18633600  0.41326123     0.11400
H1639       H  0.89261638  0.22526835  0.40055345     0.07700
C1640       C  0.89969784  0.28257046  0.38257688    -0.11500
C1641       C  0.92220900  0.30304215  0.37573639    -0.10800
C1642       C  0.92918087  0.30354081  0.35716215    -0.01700
C1643       C  0.91228632  0.28385040  0.34546555    -0.11900
C1644       C  0.88970083  0.26330372  0.35234035    -0.10300
H1645       H  0.89506444  0.28252410  0.39698018     0.07700
H1646       H  0.93450315  0.31818007  0.38506826     0.11400
H1647       H  0.91711988  0.28369812  0.33107884     0.11100
H1648       H  0.87775099  0.24764770  0.34313726     0.07600
C1649       C  0.91434004  0.50072534  0.36220706    -0.11500
C1650       C  0.89363727  0.49136112  0.37595376     0.05700
C1651       C  0.89460700  0.46034507  0.38212036    -0.10200
C1652       C  0.91558671  0.43899071  0.37447576    -0.11900
C1653       C  0.93613306  0.44829988  0.36059578    -0.01700
C1654       C  0.93537805  0.47945393  0.35461770    -0.10800
C1655       C  0.86779328  0.01227935  0.38336526     0.05700
H1656       H  0.87874814  0.45249054  0.39260449     0.07600
H1657       H  0.91569212  0.41516945  0.37944437     0.11100
H1658       H  0.95111810  0.48746243  0.34411165     0.11400
H1659       H  0.91173035  0.02318276  0.35734015     0.07700
C1660       C  0.86155777  0.01408650  0.40203198    -0.11500
C1661       C  0.84053129  0.03641586  0.40881046    -0.10800
C1662       C  0.82516270  0.05725957  0.39703833    -0.01700
C1663       C  0.83084041  0.05480435  0.37835734    -0.11900
C1664       C  0.85186873  0.03266103  0.37162480    -0.10300
H1665       H  0.87355502  0.99878039  0.41143986     0.07700
H1666       H  0.83660267  0.03760173  0.42326675     0.11400
H1667       H  0.81927603  0.07028937  0.36887223     0.11100
H1668       H  0.85679219  0.53156266  0.35715720     0.07600
C1669       C  0.61694795  0.47926871  0.35331662    -0.11500
C1670       C  0.61525262  0.49001072  0.37130114     0.05700
C1671       C  0.59116188  0.47845817  0.38244187    -0.10200
C1672       C  0.56898211  0.45744181  0.37572260    -0.11900
C1673       C  0.57013215  0.44733255  0.35763998    -0.01700
C1674       C  0.59457999  0.45826687  0.34654261    -0.10800
C1675       C  0.63572630  0.01531593  0.37780514     0.05700
H1676       H  0.58738714  0.98740530  0.39544940     0.07600
H1677       H  0.55057346  0.44945330  0.38469544     0.11100
H1678       H  0.59624353  0.45083328  0.33258377     0.11400
H1679       H  0.63507077  0.48775226  0.34430490     0.07700
C1680       C  0.66797234  0.01324362  0.37411143    -0.11500
C1681       C  0.68897585  0.03475965  0.38167311    -0.10800
C1682       C  0.67815410  0.05876599  0.39308236    -0.01700
C1683       C  0.64589935  0.06085036  0.39668025    -0.11900
C1684       C  0.62497876  0.03948295  0.38909911    -0.10300
H1685       H  0.67864587  0.49525553  0.36462451     0.07700
H1686       H  0.71369844  0.03251618  0.37865451     0.11400
H1687       H  0.63671224  0.07924958  0.40521905     0.11100
H1688       H  0.60023036  0.04204481  0.39197710     0.07600
C1689       C  0.72297694  0.48376019  0.52105097    -0.11500
C1690       C  0.74931823  0.48670153  0.50977211     0.05700
C1691       C  0.77526080  0.46720400  0.51273873    -0.10200
C1692       C  0.77478677  0.44502650  0.52660497    -0.11900
C1693       C  0.74842307  0.44197103  0.53789263    -0.01700
C1694       C  0.72256647  0.46170328  0.53502609    -0.10800
C1695       C  0.74871079  0.01005549  0.49456278     0.05700
H1696       H  0.79575678  0.46883498  0.50415678     0.07600
H1697       H  0.79508799  0.43014447  0.52841377     0.11100
H1698       H  0.70195084  0.45997922  0.54349815     0.11400
H1699       H  0.70280685  0.49879244  0.51916853     0.07700
C1700       C  0.72356421  0.01226935  0.48234547    -0.11500
C1701       C  0.72340031  0.03517223  0.46883187    -0.10800
C1702       C  0.74840054  0.05633728  0.46725510    -0.01700
C1703       C  0.77385185  0.05363244  0.47921483    -0.11900
C1704       C  0.77399026  0.03080321  0.49271011    -0.10300
H1705       H  0.70357215  0.49903588  0.48501545     0.07700
H1706       H  0.70357753  0.03647068  0.45973343     0.11400
H1707       H  0.79353378  0.06951424  0.47835389     0.11100
H1708       H  0.79357090  0.02993880  0.50199852     0.07600
C1709       C  0.72599062  0.27786132  0.51547204    -0.11500
C1710       C  0.75325261  0.26098759  0.51129704     0.05700
C1711       C  0.78067423  0.26674501  0.52128804    -0.10200
C1712       C  0.78086732  0.28913867  0.53508465    -0.11900
C1713       C  0.75371819  0.30641174  0.53899743    -0.01700
C1714       C  0.72624338  0.30037268  0.52911742    -0.10800
C1715       C  0.75301486  0.23756763  0.49650102     0.05700
H1716       H  0.80190713  0.25378099  0.51849118     0.07600
H1717       H  0.80235721  0.29325495  0.54248294     0.11100
H1718       H  0.70488610  0.31321706  0.53184283     0.11400
H1719       H  0.70459641  0.27409141  0.50792138     0.07700
C1720       C  0.72787194  0.21665726  0.49470374    -0.11500
C1721       C  0.72769121  0.19444814  0.48084922    -0.10800
C1722       C  0.75260096  0.19267719  0.46842961    -0.01700
C1723       C  0.77756290  0.21388972  0.47009501    -0.11900
C1724       C  0.77778026  0.23605251  0.48400885    -0.10300
H1725       H  0.70858760  0.21713478  0.50420887     0.07700
H1726       H  0.70809937  0.17843016  0.47998405     0.11400
H1727       H  0.79701140  0.21326154  0.46071205     0.11100
H1728       H  0.79723683  0.25221981  0.48491721     0.07600
C1729       C  0.63513370  0.29210342  0.63018411    -0.11500
C1730       C  0.63438565  0.26194164  0.62258922     0.05700
C1731       C  0.65414054  0.25539867  0.60778012    -0.10200
C1732       C  0.67402713  0.27839687  0.60081027    -0.11900
C1733       C  0.67517982  0.30805299  0.60881652    -0.01700
C1734       C  0.65563225  0.31470799  0.62355162    -0.10800
C1735       C  0.61281847  0.23775926  0.63002492     0.05700
H1736       H  0.65467788  0.23241572  0.60171148     0.07600
H1737       H  0.68907293  0.27279045  0.58945546     0.11100
H1738       H  0.65580135  0.33764878  0.62974045     0.11400
H1739       H  0.61963523  0.29852415  0.64115900     0.07700
C1740       C  0.60467652  0.23784594  0.64850236    -0.11500
C1741       C  0.58251093  0.21691623  0.65523589    -0.10800
C1742       C  0.56867988  0.19479774  0.64379275    -0.01700
C1743       C  0.57786068  0.19344125  0.62558255    -0.11900
C1744       C  0.59939395  0.21495737  0.61870168    -0.10300
H1745       H  0.61524545  0.25421542  0.65782511     0.07700
H1746       H  0.57614515  0.21801853  0.66941494     0.11400
H1747       H  0.56738361  0.17659054  0.61648977     0.11100
H1748       H  0.60463673  0.21427967  0.60438004     0.07600
C1749       C  0.86985992  0.28120118  0.61169258    -0.11500
C1750       C  0.86217307  0.26296688  0.62686512     0.05700
C1751       C  0.83305764  0.26783668  0.63538699    -0.10200
C1752       C  0.81216445  0.29036522  0.62878553    -0.11900
C1753       C  0.82001343  0.30833886  0.61353068    -0.01700
C1754       C  0.84902949  0.30342240  0.60507347    -0.10800
C1755       C  0.88493677  0.23951186  0.63376676     0.05700
H1756       H  0.82624081  0.25403490  0.64701609     0.07600
H1757       H  0.78998078  0.29375335  0.63562289     0.11100
H1758       H  0.85586072  0.31694638  0.59333185     0.11400
H1759       H  0.89231679  0.27879891  0.60505030     0.07700
C1760       C  0.90455810  0.22327879  0.62168369    -0.11500
C1761       C  0.92768431  0.20310852  0.62809871    -0.10800
C1762       C  0.93146745  0.19825563  0.64675218    -0.01700
C1763       C  0.91125103  0.21361076  0.65885195    -0.11900
C1764       C  0.88830038  0.23411155  0.65243363    -0.10300
H1765       H  0.90213949  0.22616540  0.60720000     0.07700
H1766       H  0.94268387  0.19139608  0.61841072     0.11400
H1767       H  0.91353487  0.21025694  0.67331194     0.11100
H1768       H  0.87387810  0.24642084  0.66214887     0.07600
C1769       C  0.86305951  0.48232139  0.60496451    -0.11500
C1770       C  0.86490650  0.48797665  0.62364432     0.05700
C1771       C  0.84481573  0.47176487  0.63539098    -0.10200
C1772       C  0.82368152  0.44982992  0.62860553    -0.11900
C1773       C  0.82231585  0.44361148  0.60994449    -0.01700
C1774       C  0.84196332  0.46035290  0.59816912    -0.10800
C1775       C  0.88671477  0.01288775  0.62962491     0.05700
H1776       H  0.84669599  0.97641551  0.64889778     0.07600
H1777       H  0.80863782  0.43749062  0.63800847     0.11100
H1778       H  0.84152219  0.45600804  0.58374610     0.11400
H1779       H  0.87851093  0.49435488  0.59564773     0.07700
C1780       C  0.90672675  0.00372972  0.64370881    -0.11500
C1781       C  0.92919664  0.02426432  0.65038076    -0.10800
C1782       C  0.93211928  0.05449981  0.64317564    -0.01700
C1783       C  0.91193224  0.06383050  0.62913559    -0.11900
C1784       C  0.88950576  0.04308792  0.62234850    -0.10300
H1785       H  0.90418307  0.47933835  0.65222495     0.07700
H1786       H  0.94445503  0.01628943  0.66116330     0.11400
H1787       H  0.91364189  0.08695731  0.62332020     0.11100
H1788       H  0.87418161  0.05068582  0.61150562     0.07600
C1789       C  0.61197825  0.01656533  0.65003235    -0.11500
C1790       C  0.61463785  0.01185976  0.63128606     0.05700
C1791       C  0.59479987  0.02849656  0.61957948    -0.10200
C1792       C  0.57217551  0.04879606  0.62649677    -0.11900
C1793       C  0.56884602  0.05282763  0.64527304    -0.01700
C1794       C  0.58927709  0.03682917  0.65697220    -0.10800
C1795       C  0.63517269  0.48607746  0.62514197     0.05700
H1796       H  0.59666586  0.02562834  0.60506775     0.07600
H1797       H  0.55698697  0.06101229  0.61711048     0.11100
H1798       H  0.58735148  0.03950297  0.67148908     0.11400
H1799       H  0.62682468  0.00381674  0.65936690     0.07700
C1800       C  0.66573842  0.48424861  0.63203726    -0.11500
C1801       C  0.68676653  0.46237950  0.62512581    -0.10800
C1802       C  0.67750028  0.44202188  0.61123419    -0.01700
C1803       C  0.64696097  0.44399134  0.60430712    -0.11900
C1804       C  0.62597664  0.46577040  0.61123208    -0.10300
H1805       H  0.67564557  0.00247254  0.64114229     0.07700
H1806       H  0.71019425  0.46132569  0.63071697     0.11400
H1807       H  0.63912718  0.42848883  0.59366609     0.11100
H1808       H  0.60236255  0.46640020  0.60588277     0.07600
C1809       C  0.60586299  0.10095611  0.73573056    -0.11500
C1810       C  0.61066334  0.12823415  0.74605333     0.05700
C1811       C  0.59295514  0.15506754  0.74187024    -0.10200
C1812       C  0.57169372  0.15486744  0.72757221    -0.11900
C1813       C  0.56678226  0.12754738  0.71758117    -0.01700
C1814       C  0.58373485  0.10049882  0.72183124    -0.10800
C1815       C  0.63419560  0.12891497  0.76092950     0.05700
H1816       H  0.59507038  0.17623541  0.74975499     0.07600
H1817       H  0.55836275  0.17582254  0.72466056     0.11100
H1818       H  0.58025485  0.07920039  0.71417162     0.11400
H1819       H  0.61942683  0.08000458  0.73814552     0.07700
C1820       C  0.64171358  0.10160629  0.77064972    -0.11500
C1821       C  0.66464367  0.10215548  0.78408794    -0.10800
C1822       C  0.67980695  0.13017033  0.78851547    -0.01700
C1823       C  0.67186422  0.15761747  0.77929665    -0.11900
C1824       C  0.64969015  0.15691648  0.76544796    -0.10300
H1825       H  0.62986031  0.07975258  0.76800916     0.07700
H1826       H  0.67034471  0.08070921  0.79116855     0.11400
H1827       H  0.68365027  0.17938136  0.78234853     0.11100
H1828       H  0.64537351  0.17829165  0.75804147     0.07600
C1829       C  0.84321147  0.14636068  0.76191482    -0.11500
C1830       C  0.86260953  0.12015209  0.75968873     0.05700
C1831       C  0.85888978  0.09451121  0.77137396    -0.10200
C1832       C  0.83613471  0.09509530  0.78504074    -0.11900
C1833       C  0.81644444  0.12121870  0.78713318    -0.01700
C1834       C  0.82035774  0.14686412  0.77543067    -0.10800
C1835       C  0.88679905  0.11991630  0.74528629     0.05700
H1836       H  0.87382552  0.07416463  0.77004353     0.07600
H1837       H  0.83384187  0.07505662  0.79387992     0.11100
H1838       H  0.80562526  0.16738402  0.77664065     0.11400
H1839       H  0.84547025  0.16634156  0.75301300     0.07700
C1840       C  0.88997453  0.09425380  0.73357357    -0.11500
C1841       C  0.91246189  0.09455309  0.71976057    -0.10800
C1842       C  0.93239480  0.12042759  0.71753097    -0.01700
C1843       C  0.92918453  0.14599308  0.72934247    -0.11900
C1844       C  0.90659646  0.14577561  0.74300691    -0.10300
H1845       H  0.87475484  0.07415031  0.73496235     0.07700
H1846       H  0.91430298  0.07452601  0.71088652     0.11400
H1847       H  0.94421310  0.16625909  0.72807425     0.11100
H1848       H  0.90478951  0.16573403  0.75194456     0.07600
C1849       C  0.97847920  0.45905138  0.99770940    -0.11500
C1850       C  0.49594611  0.48671251  0.99606385     0.05700
C1851       C  0.51370883  0.49175359  0.98030755    -0.10200
C1852       C  0.51456516  0.46932274  0.96668004    -0.11900
C1853       C  0.49721986  0.44170891  0.96839335    -0.01700
C1854       C  0.97891727  0.43684674  0.98391997    -0.10800
C1855       C  0.49385110  0.01283739  0.00939134     0.05700
H1856       H  0.52683176  0.51313600  0.97843494     0.07600
H1857       H  0.52860119  0.47368863  0.95472909     0.11100
H1858       H  0.96553052  0.41555476  0.98559102     0.11400
H1859       H  0.96495651  0.45425652  0.00979182     0.07700
C1860       C  0.96563025  0.02261868  0.01742927    -0.11500
C1861       C  0.96588529  0.04418518  0.03157112    -0.10800
C1862       C  0.49430869  0.05668375  0.03769957    -0.01700
C1863       C  0.52250251  0.04665149  0.02985390    -0.11900
C1864       C  0.52229388  0.02477137  0.01594003    -0.10300
H1865       H  0.94331005  0.01412785  0.01256105     0.07700
H1866       H  0.94382144  0.05174791  0.03734601     0.11400
H1867       H  0.54476882  0.05571329  0.03449017     0.11100
H1868       H  0.54513171  0.52187400  0.00779155     0.07600
C1869       C  0.52182661  0.28425601  0.99401429    -0.11500
C1870       C  0.50087914  0.25903454  0.99350601     0.05700
C1871       C  0.97888272  0.25740259  0.97936395    -0.10200
C1872       C  0.97766145  0.28076370  0.96613744    -0.11900
C1873       C  0.49850164  0.30609706  0.96678642    -0.01700
C1874       C  0.52070471  0.30746033  0.98079641    -0.10800
C1875       C  0.50149256  0.23511921  0.00802619     0.05700
H1876       H  0.96269402  0.23800453  0.97849879     0.07600
H1877       H  0.96045348  0.27899147  0.95542048     0.11100
H1878       H  0.53699854  0.32676362  0.98173202     0.11400
H1879       H  0.53867934  0.28645216  0.00488287     0.07700
C1880       C  0.53010663  0.22435531  0.01514414    -0.11500
C1881       C  0.53056474  0.20263774  0.02928374    -0.10800
C1882       C  0.50242466  0.19103311  0.03640894    -0.01700
C1883       C  0.97385873  0.20167625  0.02925022    -0.11900
C1884       C  0.97339144  0.22358567  0.01527075    -0.10300
H1885       H  0.55214813  0.23253144  0.00967185     0.07700
H1886       H  0.55288546  0.19450083  0.03441271     0.11400
H1887       H  0.95180524  0.19322679  0.03457740     0.11100
H1888       H  0.95100043  0.23185238  0.01031781     0.07600
C1889       C  0.59942420  0.26027560  0.89795241    -0.11500
C1890       C  0.62213305  0.26925025  0.88512789     0.05700
C1891       C  0.62285334  0.30061088  0.87936041    -0.10200
C1892       C  0.60077925  0.32206257  0.88569623    -0.11900
C1893       C  0.57809325  0.31287294  0.89830814    -0.01700
C1894       C  0.57787363  0.28201907  0.90465671    -0.10800
C1895       C  0.64445681  0.24596811  0.87744749     0.05700
H1896       H  0.64048846  0.30867496  0.86993997     0.07600
H1897       H  0.60164874  0.34598649  0.88091914     0.11100
H1898       H  0.56046278  0.27455273  0.91441027     0.11400
H1899       H  0.59778891  0.23631800  0.90253044     0.07700
C1900       C  0.65582324  0.22102642  0.88800885    -0.11500
C1901       C  0.67636168  0.19898513  0.88059762    -0.10800
C1902       C  0.68643280  0.20171070  0.86257597    -0.01700
C1903       C  0.67532784  0.22665660  0.85204795    -0.11900
C1904       C  0.65436214  0.24832769  0.85932722    -0.10300
H1905       H  0.64923293  0.21871787  0.90208352     0.07700
H1906       H  0.68489869  0.18017784  0.88908625     0.11400
H1907       H  0.68257243  0.22920643  0.83808152     0.11100
H1908       H  0.64561486  0.26670147  0.85061724     0.07600
C1909       C  0.88105369  0.28062383  0.89287290    -0.11500
C1910       C  0.89038790  0.26157379  0.87841108     0.05700
C1911       C  0.92072760  0.26493822  0.87128647    -0.10200
C1912       C  0.94127355  0.28725657  0.87847342    -0.11900
C1913       C  0.93159738  0.30674852  0.89273805    -0.01700
C1914       C  0.90135630  0.30291340  0.89994163    -0.10800
C1915       C  0.86802014  0.23863244  0.87086229     0.05700
H1916       H  0.92850490  0.25027551  0.86023624     0.07600
H1917       H  0.96448176  0.28955458  0.87271383     0.11100
H1918       H  0.89311115  0.31744453  0.91094263     0.11400
H1919       H  0.85769464  0.27870752  0.89850274     0.07700
C1920       C  0.85041875  0.21977010  0.88259102    -0.11500
C1921       C  0.82734017  0.19998086  0.87583161    -0.10800
C1922       C  0.82124024  0.19857292  0.85716313    -0.01700
C1923       C  0.83935130  0.21691855  0.84533038    -0.11900
C1924       C  0.86261718  0.23675681  0.85214125    -0.10300
H1925       H  0.85434519  0.22057211  0.89705466     0.07700
H1926       H  0.81400458  0.18599299  0.88532051     0.11400
H1927       H  0.83514518  0.21638937  0.83089508     0.11100
H1928       H  0.87571375  0.25135418  0.84284569     0.07600
C1929       C  0.85656716  0.04010544  0.88203191    -0.11500
C1930       C  0.85761069  0.00938466  0.87532059     0.05700
C1931       C  0.83686710  0.00080275  0.86142961    -0.10200
C1932       C  0.81560463  0.02240299  0.85441157    -0.11900
C1933       C  0.81448566  0.05308030  0.86117202    -0.01700
C1934       C  0.83522488  0.06173064  0.87502694    -0.10800
C1935       C  0.88472896  0.49002061  0.88360243     0.05700
H1936       H  0.85006817  0.48479813  0.85284402     0.07600
H1937       H  0.79984520  0.01494575  0.84378878     0.11100
H1938       H  0.83490603  0.08519144  0.88051576     0.11400
H1939       H  0.87250992  0.04755715  0.89254443     0.07700
C1940       C  0.90530500  0.47403041  0.87200048    -0.11500
C1941       C  0.92536198  0.45100445  0.87871444    -0.10800
C1942       C  0.92545218  0.44346233  0.89721781    -0.01700
C1943       C  0.90533419  0.45988000  0.90892779    -0.11900
C1944       C  0.88516157  0.48292333  0.90217905    -0.10300
H1945       H  0.90587644  0.47932787  0.85768136     0.07700
H1946       H  0.94079161  0.43904075  0.86935905     0.11400
H1947       H  0.90481780  0.45458165  0.92325071     0.11100
H1948       H  0.86933597  0.49463800  0.91142459     0.07600
C1949       C  0.65550801  0.03205766  0.88694204    -0.11500
C1950       C  0.63335211  0.01712745  0.87586496     0.05700
C1951       C  0.63397838  0.02306047  0.85712994    -0.10200
C1952       C  0.65666654  0.04281123  0.84961204    -0.11900
C1953       C  0.67924359  0.05713637  0.86066506    -0.01700
C1954       C  0.67812178  0.05181019  0.87944573    -0.10800
C1955       C  0.61212748  0.49271433  0.88260513     0.05700
H1956       H  0.61750765  0.01166116  0.84817182     0.07600
H1957       H  0.65683236  0.04644412  0.83511105     0.11100
H1958       H  0.69503937  0.06259719  0.88839482     0.11400
H1959       H  0.64939431  0.53392679  0.90093110     0.07700
C1960       C  0.61982970  0.47462463  0.89783303    -0.11500
C1961       C  0.59904114  0.45211430  0.90440338    -0.10800
C1962       C  0.56992729  0.44721042  0.89597361    -0.01700
C1963       C  0.56178155  0.46595187  0.88106373    -0.11900
C1964       C  0.58273139  0.48836949  0.87440111    -0.10300
H1965       H  0.64238114  0.47721510  0.90435487     0.07700
H1966       H  0.60604876  0.43817404  0.91594941     0.11400
H1967       H  0.53949059  0.46288007  0.87431946     0.11100
H1968       H  0.57151095  0.00868363  0.86695749     0.07600
O1969       O  0.54059241  0.85426619  0.89367051    -0.86000
O1970       O  0.97873592  0.83656079  0.89373406    -0.83000
C1971       C  0.95161347  0.83205377  0.89997931     0.97500
O1972       O  0.94070450  0.84970742  0.91217254    -0.83100
O1973       O  0.97363643  0.83437535  0.94296011    -0.85700
C1974       C  0.49617861  0.83278477  0.95395353     1.02000
O1975       O  0.51802235  0.85262968  0.95320624    -0.78500
O1976       O  0.54761059  0.83683696  0.92128525    -0.78600
C1977       C  0.55257489  0.83467283  0.90449751     1.02000
O1978       O  0.52139265  0.91876297  0.89593540    -0.86000
O1979       O  0.95962648  0.90077198  0.89270486    -0.83000
C1980       C  0.94498789  0.91818991  0.90365708     0.97500
O1981       O  0.94824936  0.91457681  0.92048213    -0.83100
O1982       O  0.97662128  0.89935965  0.95249868    -0.85700
C1983       C  0.49838120  0.91930464  0.95351382     1.02000
O1984       O  0.52224038  0.91711644  0.94351920    -0.78500
O1985       O  0.55837742  0.90223767  0.91401572    -0.78600
C1986       C  0.54840048  0.92193681  0.90261290     1.01900
Cr1987     Cr  0.00000459  0.87754812  0.89578020     1.93700
Cr1988     Cr  0.96250146  0.87458257  0.93115620     1.93200
Cr1989     Cr  0.53398932  0.87709166  0.93207946     1.39100
O1990       O  0.49872252  0.87637696  0.91965641    -1.23700
O1991       O  0.79105072  0.60452226  0.86113243    -0.86000
O1992       O  0.77686844  0.66696829  0.86216801    -0.83000
C1993       C  0.79557549  0.67911896  0.85091718     0.97500
O1994       O  0.79145725  0.67538639  0.83418999    -0.83100
O1995       O  0.77508954  0.64589053  0.80267752    -0.85700
C1996       C  0.79297994  0.62233804  0.80155051     1.02000
O1997       O  0.78948927  0.59954227  0.81217653    -0.78500
O1998       O  0.77441664  0.56741374  0.84318328    -0.78600
C1999       C  0.79349806  0.57718666  0.85498592     1.02000
O2000       O  0.72547998  0.58920927  0.86373024    -0.86000
O2001       O  0.71169248  0.65188325  0.86175701    -0.83000
C2002       C  0.70838316  0.67859914  0.85484062     0.97500
O2003       O  0.72612783  0.68756556  0.84209181    -0.83100
O2004       O  0.71036106  0.65343758  0.81200632    -0.85700
C2005       C  0.70663097  0.62986325  0.80204004     1.02000
O2006       O  0.72422268  0.60622637  0.80364632    -0.78500
O2007       O  0.70928256  0.57914647  0.83621567    -0.78600
C2008       C  0.70643053  0.57590312  0.85309852     1.01900
Cr2009     Cr  0.75120368  0.62806266  0.86025307     1.93700
Cr2010     Cr  0.75072930  0.66278926  0.82378110     1.93200
Cr2011     Cr  0.74941583  0.59099192  0.82472477     1.39100
O2012       O  0.75031210  0.62731703  0.83624128    -1.23700
O2013       O  0.78925165  0.90022210  0.61328322    -0.86000
O2014       O  0.72695719  0.91520287  0.61079236    -0.83000
C2015       C  0.69979436  0.91773533  0.60431087     0.97500
O2016       O  0.69030881  0.89853049  0.59250846    -0.83100
O2017       O  0.72451658  0.91501373  0.56234723    -0.85700
C2018       C  0.74797252  0.91825902  0.55211992     1.02000
O2019       O  0.77116261  0.89993716  0.55344846    -0.78500
O2020       O  0.79895129  0.91526670  0.58551223    -0.78600
C2021       C  0.80233517  0.91882874  0.60230676     1.02000
O2022       O  0.77297982  0.83509536  0.61172978    -0.86000
O2023       O  0.71015259  0.85026429  0.61252278    -0.83000
C2024       C  0.69805325  0.83121117  0.60144853     0.97500
O2025       O  0.70312034  0.83376912  0.58472322    -0.83100
O2026       O  0.73154039  0.85080200  0.55284482    -0.85700
C2027       C  0.75460775  0.83240081  0.55163197     1.02000
O2028       O  0.77739450  0.83492676  0.56238588    -0.78500
O2029       O  0.81011842  0.85042440  0.59326180    -0.78600
C2030       C  0.80025273  0.83202007  0.60541345     1.01900
Cr2031     Cr  0.74989777  0.87513320  0.61026284     1.93700
Cr2032     Cr  0.71504865  0.87452357  0.57407708     1.93200
Cr2033     Cr  0.78668895  0.87507087  0.57458231     1.39100
O2034       O  0.75061032  0.87489767  0.58630476    -1.23700
O2035       O  0.53991998  0.64706195  0.64329037    -0.86000
O2036       O  0.52485772  0.58478873  0.64234890    -0.83000
C2037       C  0.54417804  0.57237982  0.65314388     0.97500
O2038       O  0.54196250  0.57692571  0.66989957    -0.83100
O2039       O  0.52745655  0.60503566  0.70181786    -0.85700
C2040       C  0.54520562  0.62862697  0.70263799     1.02000
O2041       O  0.54094138  0.65179730  0.69244948    -0.78500
O2042       O  0.52478181  0.68397186  0.66193938    -0.78600
C2043       C  0.54334752  0.67401092  0.64985658     1.02000
O2044       O  0.97464331  0.66323125  0.64228001    -0.86000
O2045       O  0.96000909  0.60083932  0.64470948    -0.83000
C2046       C  0.95781601  0.57365123  0.65115553     0.97500
O2047       O  0.97700140  0.56431054  0.66304830    -0.83100
O2048       O  0.96199621  0.59776825  0.69348361    -0.85700
C2049       C  0.95853043  0.62102437  0.70373323     1.02000
O2050       O  0.97632583  0.64454816  0.70219672    -0.78500
O2051       O  0.95974192  0.67233573  0.67012813    -0.78600
C2052       C  0.95607242  0.67608034  0.65336204     1.01900
Cr2053     Cr  0.49992371  0.62403922  0.64501159     1.93700
Cr2054     Cr  0.50197596  0.58878089  0.68112762     1.93200
Cr2055     Cr  0.50042395  0.66041241  0.68074600     1.39100
O2056       O  0.50080758  0.62443186  0.66898299    -1.23700
O2057       O  0.79216065  0.60025717  0.39319044    -0.86000
O2058       O  0.72962013  0.58426355  0.39467839    -0.83000
C2059       C  0.70212053  0.58168132  0.40073472     0.97500
O2060       O  0.69251148  0.60015258  0.41295059    -0.83100
O2061       O  0.72653260  0.58456808  0.44345881    -0.85700
C2062       C  0.74980267  0.58145984  0.45383449     1.02000
O2063       O  0.77257801  0.60034101  0.45285817    -0.78500
O2064       O  0.80193003  0.58531058  0.42098495    -0.78600
C2065       C  0.80588964  0.58213546  0.40419176     1.02000
O2066       O  0.77456538  0.66506468  0.39468484    -0.86000
O2067       O  0.71251896  0.64944103  0.39304390    -0.83000
C2068       C  0.69978459  0.66849610  0.40392442     0.97500
O2069       O  0.70353344  0.66522152  0.42074785    -0.83100
O2070       O  0.73195304  0.64954079  0.45285976    -0.85700
C2071       C  0.75457282  0.66859060  0.45369992     1.02000
O2072       O  0.77777818  0.66546052  0.44335217    -0.78500
O2073       O  0.81177679  0.65056943  0.41329050    -0.78600
C2074       C  0.80141040  0.66910626  0.40134405     1.01900
Cr2075     Cr  0.75226945  0.62468725  0.39574585     1.93700
Cr2076     Cr  0.71637790  0.62480905  0.43159971     1.93200
Cr2077     Cr  0.78821541  0.62534258  0.43170212     1.39100
O2078       O  0.75232118  0.62482565  0.41968020    -1.23700
O2079       O  0.96111810  0.89821229  0.35968621    -0.86000
O2080       O  0.97576729  0.83597659  0.36192754    -0.83000
C2081       C  0.95640096  0.82330385  0.35125150     0.97500
O2082       O  0.95965961  0.82615066  0.33437614    -0.83100
O2083       O  0.97494380  0.85318875  0.30177353    -0.85700
C2084       C  0.95692025  0.87662278  0.30029791     1.02000
O2085       O  0.96040860  0.89989453  0.31056734    -0.78500
O2086       O  0.97653424  0.93439235  0.34070524    -0.78600
C2087       C  0.95845011  0.92537677  0.35328011     1.02000
O2088       O  0.52622091  0.91436112  0.36067125    -0.82000
O2089       O  0.54124611  0.85176987  0.35973299    -0.83000
C2090       C  0.54388932  0.82429440  0.35376910     0.97500
O2091       O  0.52494373  0.81434573  0.34187917    -0.83100
O2092       O  0.54022511  0.84665079  0.31088363    -0.85700
C2093       C  0.54360039  0.86949682  0.30028694     1.02000
O2094       O  0.52529153  0.89274654  0.30122269    -0.78500
O2095       O  0.54165954  0.92264757  0.33282637    -0.78600
C2096       C  0.54469325  0.92734531  0.34957914     1.01900
Cr2097     Cr  0.50111502  0.87497268  0.35861023     1.93700
Cr2098     Cr  0.50000227  0.83787600  0.32312966     1.93200
Cr2099     Cr  0.50093663  0.90962857  0.32228989     1.39100
O2100       O  0.50069829  0.87416541  0.33465883    -1.23700
O2101       O  0.97495164  0.58256269  0.10921043    -0.86000
O2102       O  0.53726694  0.59636958  0.11209887    -0.83000
C2103       C  0.55031639  0.57821032  0.10092288     0.97500
O2104       O  0.54767382  0.58269444  0.08413633    -0.83100
O2105       O  0.51898455  0.59946545  0.05249291    -0.85700
C2106       C  0.49575229  0.58118370  0.05154298     1.02000
O2107       O  0.97232339  0.58492613  0.06170394    -0.78500
O2108       O  0.93838353  0.60181236  0.09176514    -0.78600
C2109       C  0.94756480  0.58138194  0.10291757     1.02000
O2110       O  0.96004132  0.64830574  0.11198384    -0.86000
O2111       O  0.52249293  0.66189714  0.11134804    -0.83000
C2112       C  0.54960092  0.66497862  0.10483215     0.97500
O2113       O  0.55921046  0.64688109  0.09248608    -0.83100
O2114       O  0.52634421  0.66419683  0.06196845    -0.85700
C2115       C  0.50316712  0.66778582  0.05159158     1.02000
O2116       O  0.98032024  0.64912722  0.05235765    -0.78500
O2117       O  0.95294682  0.66590897  0.08443493    -0.78600
C2118       C  0.94903321  0.66859959  0.10126326     1.01900
Cr2119     Cr  0.49872615  0.62235150  0.10938607     1.93700
Cr2120     Cr  0.53536552  0.62339778  0.07365552     1.93200
Cr2121     Cr  0.96367151  0.62531163  0.07346636     1.39100
O2122       O  0.49938979  0.62370557  0.08550554    -1.23700
O2123       O  0.70890338  0.84820677  0.14284375    -0.86000
O2124       O  0.72225029  0.91056887  0.14026238    -0.83000
C2125       C  0.70314797  0.92275063  0.15128567     0.97500
O2126       O  0.70711699  0.91954661  0.16809030    -0.83100
O2127       O  0.72490390  0.89253686  0.20021798    -0.85700
C2128       C  0.70728385  0.86893078  0.20180132     1.02000
O2129       O  0.71061765  0.84582287  0.19141690    -0.78500
O2130       O  0.72685890  0.81218665  0.16115542    -0.78600
C2131       C  0.70689231  0.82129375  0.14967537     1.02000
O2132       O  0.77495244  0.83375734  0.14037985    -0.86000
O2133       O  0.78817242  0.89637950  0.14131768    -0.83000
C2134       C  0.79061001  0.92357613  0.14773801     0.97500
O2135       O  0.77157168  0.93293691  0.15971866    -0.83100
O2136       O  0.78938421  0.90081530  0.19052233    -0.85700
C2137       C  0.79316420  0.87801908  0.20116288     1.02000
O2138       O  0.77543197  0.85440022  0.20008879    -0.78500
O2139       O  0.79117702  0.82557259  0.16817898    -0.78600
C2140       C  0.79416308  0.82166944  0.15137934     1.01900
Cr2141     Cr  0.74862470  0.87221729  0.14301945     1.93700
Cr2142     Cr  0.74834087  0.90874024  0.17869363     1.93200
Cr2143     Cr  0.75091901  0.83724718  0.17924804     1.39100
O2144       O  0.74945503  0.87274017  0.16698379    -1.23700
C2145       C  0.58064437  0.73735036  0.12839867    -0.11500
C2146       C  0.61293660  0.73438081  0.12516093     0.05700
C2147       C  0.62395773  0.70888241  0.11507996    -0.10200
C2148       C  0.60324608  0.68658020  0.10845817    -0.11900
C2149       C  0.57100795  0.68908683  0.11190201    -0.01700
C2150       C  0.55981517  0.71467639  0.12193893    -0.10800
C2151       C  0.63559823  0.75720823  0.13244474     0.05700
H2152       H  0.64871788  0.70629000  0.11223477     0.07600
H2153       H  0.61258196  0.66714239  0.10077734     0.11100
H2154       H  0.53501389  0.71723156  0.12469088     0.11400
H2155       H  0.57167620  0.75681578  0.13619084     0.07700
C2156       C  0.63134372  0.78947327  0.12993933    -0.11500
C2157       C  0.65450289  0.81053678  0.13551411    -0.10800
C2158       C  0.68193707  0.79960706  0.14393182    -0.01700
C2159       C  0.68554312  0.76740642  0.14693874    -0.11900
C2160       C  0.66271569  0.74645255  0.14117087    -0.10300
H2161       H  0.61062391  0.79825168  0.12318988     0.07700
H2162       H  0.65101877  0.83530188  0.13321237     0.11400
H2163       H  0.70635298  0.75829609  0.15344470     0.11100
H2164       H  0.66634636  0.72169132  0.14342092     0.07600
C2165       C  0.89268365  0.73643924  0.10419653    -0.11500
C2166       C  0.89025371  0.74063160  0.12303442     0.05700
C2167       C  0.90929757  0.72249401  0.13447463    -0.10200
C2168       C  0.92889240  0.69955695  0.12733407    -0.11900
C2169       C  0.93027764  0.69456649  0.10858012    -0.01700
C2170       C  0.91268547  0.71379764  0.09703934    -0.10800
C2171       C  0.86671856  0.76246587  0.13074303     0.05700
H2172       H  0.90881947  0.72569977  0.14899597     0.07600
H2173       H  0.94265701  0.68543075  0.13655088     0.11100
H2174       H  0.91345072  0.71056986  0.08251363     0.11400
H2175       H  0.87819226  0.74968559  0.09494660     0.07700
C2176       C  0.85835237  0.79002913  0.12153420    -0.11500
C2177       C  0.83462188  0.80928285  0.12822285    -0.10800
C2178       C  0.81950057  0.80182212  0.14449243    -0.01700
C2179       C  0.82826678  0.77487438  0.15398138    -0.11900
C2180       C  0.85134344  0.75515897  0.14706276    -0.10300
H2181       H  0.87006937  0.79676624  0.10914945     0.07700
H2182       H  0.82830099  0.83019861  0.12080329     0.11400
H2183       H  0.81656481  0.76856477  0.16646154     0.11100
H2184       H  0.85648168  0.73377781  0.15431083     0.07600
C2185       C  0.87190101  0.54070445  0.11469396    -0.11500
C2186       C  0.88257217  0.51225773  0.12186778     0.05700
C2187       C  0.91490626  0.50611714  0.12223459    -0.10200
C2188       C  0.93622389  0.52855684  0.11605722    -0.11900
C2189       C  0.92546178  0.55717169  0.10910924    -0.01700
C2190       C  0.89309495  0.56281897  0.10823669    -0.10800
C2191       C  0.86107948  0.98764122  0.12861262     0.05700
H2192       H  0.92519930  0.98562059  0.12997722     0.07600
H2193       H  0.96109037  0.52356000  0.11670276     0.11100
H2194       H  0.88416709  0.58464330  0.10291334     0.11400
H2195       H  0.84704919  0.54581067  0.11405208     0.07700
C2196       C  0.83731759  0.99762901  0.14036821    -0.11500
C2197       C  0.81474315  0.97669888  0.14660278    -0.10800
C2198       C  0.81513357  0.94527091  0.14107546    -0.01700
C2199       C  0.83910265  0.93514233  0.12936303    -0.11900
C2200       C  0.86205988  0.95614397  0.12329537    -0.10300
H2201       H  0.83440144  0.52396379  0.14488190     0.07700
H2202       H  0.79673082  0.98530853  0.15564416     0.11400
H2203       H  0.84011038  0.91106197  0.12491708     0.11100
H2204       H  0.88014270  0.94800670  0.11414303     0.07600
C2205       C  0.64851071  0.96362246  0.11868482    -0.11500
C2206       C  0.63193880  0.98386952  0.13021210     0.05700
C2207       C  0.63707439  0.98177264  0.14898922    -0.10200
C2208       C  0.65931619  0.96099034  0.15595767    -0.11900
C2209       C  0.67711426  0.94212036  0.14428588    -0.01700
C2210       C  0.67091470  0.94311037  0.12562401    -0.10800
C2211       C  0.60820244  0.50468722  0.12201941     0.05700
H2212       H  0.62387976  0.49663062  0.15779699     0.07600
H2213       H  0.66341762  0.96059573  0.17041240     0.11100
H2214       H  0.68382945  0.92843524  0.11629654     0.11400
H2215       H  0.64448823  0.96389229  0.10422454     0.07700
C2216       C  0.61471162  0.51815643  0.10502677    -0.11500
C2217       C  0.59536245  0.54142008  0.09790141    -0.10800
C2218       C  0.56952640  0.55221394  0.10778359    -0.01700
C2219       C  0.56271874  0.53869146  0.12463813    -0.11900
C2220       C  0.58164517  0.51493663  0.13159928    -0.10300
H2221       H  0.63928725  0.01751963  0.09896534     0.07700
H2222       H  0.60122370  0.55172665  0.08494286     0.11400
H2223       H  0.54265872  0.54645294  0.13241719     0.11100
H2224       H  0.57549697  0.50472434  0.14451754     0.07600
C2225       C  0.61072178  0.84215027  0.27052061    -0.11500
C2226       C  0.61467407  0.86791941  0.25895022     0.05700
C2227       C  0.59531322  0.89418248  0.26122182    -0.10200
C2228       C  0.57244939  0.89467995  0.27470526    -0.11900
C2229       C  0.56836648  0.86892010  0.28626171    -0.01700
C2230       C  0.58783643  0.84266449  0.28407842    -0.10800
C2231       C  0.63883407  0.86764770  0.24452302     0.05700
H2232       H  0.59751328  0.91422453  0.25236672     0.07600
H2233       H  0.55782788  0.91525851  0.27599422     0.11100
H2234       H  0.58532090  0.82248631  0.29278992     0.11400
H2235       H  0.62555993  0.82172684  0.26920986     0.07700
C2236       C  0.65670201  0.89453589  0.24109415    -0.11500
C2237       C  0.67880495  0.89484924  0.22720568    -0.10800
C2238       C  0.68356778  0.86829171  0.21637827    -0.01700
C2239       C  0.66590851  0.84124645  0.21986935    -0.11900
C2240       C  0.64379629  0.84091154  0.23384810    -0.10300
H2241       H  0.65374740  0.91532357  0.24926041     0.07700
H2242       H  0.69215696  0.91600693  0.22494808     0.11400
H2243       H  0.66915204  0.82037490  0.21180652     0.11100
H2244       H  0.63015972  0.81993813  0.23608688     0.07600
C2245       C  0.89296829  0.90541185  0.26853821    -0.11500
C2246       C  0.88717701  0.87878613  0.25793765     0.05700
C2247       C  0.90431461  0.85137881  0.26151644    -0.10200
C2248       C  0.92672848  0.85060958  0.27531551    -0.11900
C2249       C  0.93249853  0.87720537  0.28596133    -0.01700
C2250       C  0.91526449  0.90459135  0.28243744    -0.10800
C2251       C  0.86300521  0.87922897  0.24341279     0.05700
H2252       H  0.90066375  0.83055547  0.25346523     0.07600
H2253       H  0.93960870  0.82916394  0.27760678     0.11100
H2254       H  0.91914694  0.92551636  0.29035370     0.11400
H2255       H  0.87991948  0.92675852  0.26625588     0.07700
C2256       C  0.84287520  0.85360533  0.24120744    -0.11500
C2257       C  0.82044145  0.85339558  0.22748600    -0.10800
C2258       C  0.81745548  0.87881316  0.21553258    -0.01700
C2259       C  0.83739185  0.90466212  0.21777151    -0.11900
C2260       C  0.85990130  0.90489499  0.23161027    -0.10300
H2261       H  0.84425422  0.83373060  0.25024985     0.07700
H2262       H  0.80533961  0.83319802  0.22629513     0.11400
H2263       H  0.83563545  0.92465357  0.20883123     0.11100
H2264       H  0.87521233  0.92491632  0.23290199     0.07600
C2265       C  0.64401833  0.73788139  0.40147927    -0.11500
C2266       C  0.63809096  0.73974519  0.38277830     0.05700
C2267       C  0.65402496  0.71917481  0.37114495    -0.10200
C2268       C  0.67442631  0.69656958  0.37802807    -0.11900
C2269       C  0.67948486  0.69385917  0.39675466    -0.01700
C2270       C  0.66445008  0.71513345  0.40840319    -0.10800
C2271       C  0.61432944  0.76187515  0.37537178     0.05700
H2272       H  0.65051317  0.72039379  0.35665576     0.07600
H2273       H  0.68587850  0.68085167  0.36863251     0.11100
H2274       H  0.66800098  0.71383223  0.42288898     0.11400
H2275       H  0.63204074  0.75331121  0.41081971     0.07700
C2276       C  0.59369319  0.75203188  0.36169614    -0.11500
C2277       C  0.57109744  0.77233241  0.35467068    -0.10800
C2278       C  0.56845579  0.80311273  0.36111406    -0.01700
C2279       C  0.58910429  0.81307354  0.37479792    -0.11900
C2280       C  0.61173041  0.79265081  0.38188692    -0.10300
H2281       H  0.59465549  0.72833397  0.35659085     0.07700
H2282       H  0.55553378  0.76378088  0.34423657     0.11400
H2283       H  0.58772353  0.83663637  0.38008060     0.11100
H2284       H  0.62739845  0.80102685  0.39232075     0.07600
C2285       C  0.86834292  0.72674064  0.39749392    -0.11500
C2286       C  0.86116226  0.74233795  0.38126143     0.05700
C2287       C  0.83329466  0.73466665  0.37216854    -0.10200
C2288       C  0.81354738  0.71132351  0.37887524    -0.11900
C2289       C  0.82133359  0.69501737  0.39476488    -0.01700
C2290       C  0.84869874  0.70330499  0.40414356    -0.10800
C2291       C  0.88362740  0.76511113  0.37337435     0.05700
H2292       H  0.82686120  0.74656467  0.35978182     0.07600
H2293       H  0.79251143  0.70560746  0.37140610     0.11100
H2294       H  0.85518557  0.69136558  0.41650911     0.11400
H2295       H  0.88976452  0.73183628  0.40474638     0.07700
C2296       C  0.90054319  0.78559128  0.38456060    -0.11500
C2297       C  0.92379382  0.80485122  0.37731192    -0.10800
C2298       C  0.93053747  0.80421051  0.35869552    -0.01700
C2299       C  0.91282832  0.78464254  0.34739668    -0.11900
C2300       C  0.88970223  0.76523304  0.35466518    -0.10300
H2301       H  0.89602933  0.78649240  0.39896846     0.07700
H2302       H  0.93671954  0.82002855  0.38633478     0.11400
H2303       H  0.91743153  0.78366206  0.33299973     0.11100
H2304       H  0.87737116  0.74949003  0.34569644     0.07600
C2305       C  0.91201315  0.99935312  0.36228566    -0.11500
C2306       C  0.89128342  0.98987908  0.37601473     0.05700
C2307       C  0.89296700  0.95893563  0.38235266    -0.10200
C2308       C  0.91458005  0.93787180  0.37490244    -0.11900
C2309       C  0.93505801  0.94733731  0.36101207    -0.01700
C2310       C  0.93358384  0.97838250  0.35487316    -0.10800
C2311       C  0.87057917  0.51381605  0.38340640     0.05700
H2312       H  0.87721126  0.95087842  0.39282925     0.07600
H2313       H  0.91519230  0.91414207  0.38000242     0.11100
H2314       H  0.94921276  0.98658078  0.34436633     0.11400
H2315       H  0.91436191  0.52463858  0.35738617     0.07700
C2316       C  0.86545558  0.51622672  0.40214140    -0.11500
C2317       C  0.84422062  0.53820696  0.40898574    -0.10800
C2318       C  0.82759587  0.55799688  0.39718368    -0.01700
C2319       C  0.83240079  0.55506637  0.37845266    -0.11900
C2320       C  0.85366089  0.53328779  0.37165654    -0.10300
H2321       H  0.87834559  0.50155041  0.41149847     0.07700
H2322       H  0.84105175  0.53990731  0.42348891     0.11400
H2323       H  0.81987967  0.56981149  0.36897597     0.11100
H2324       H  0.85567127  0.03148124  0.35716352     0.07600
C2325       C  0.61510022  0.98177156  0.35231581    -0.11500
C2326       C  0.61323419  0.99207368  0.37037439     0.05700
C2327       C  0.58921459  0.98034051  0.38143143    -0.10200
C2328       C  0.56739958  0.95915959  0.37463198    -0.11900
C2329       C  0.56882608  0.94917178  0.35653996    -0.01700
C2330       C  0.59297421  0.96065314  0.34541728    -0.10800
C2331       C  0.63783312  0.51367112  0.37845773     0.05700
H2332       H  0.58944140  0.48561279  0.39644473     0.07600
H2333       H  0.54911840  0.95084319  0.38358702     0.11100
H2334       H  0.59471567  0.95337528  0.33142983     0.11400
H2335       H  0.63327321  0.99055442  0.34342806     0.07700
C2336       C  0.66976685  0.51304381  0.37367503    -0.11500
C2337       C  0.69076052  0.53500625  0.38088163    -0.10800
C2338       C  0.68032235  0.55803954  0.39306732    -0.01700
C2339       C  0.64838561  0.55883003  0.39765220    -0.11900
C2340       C  0.62746446  0.53709211  0.39040084    -0.10300
H2341       H  0.67699089  0.99470669  0.36562045     0.07700
H2342       H  0.71520754  0.53379500  0.37701821     0.11400
H2343       H  0.63940335  0.57647874  0.40677343     0.11100
H2344       H  0.60297326  0.53885551  0.39406410     0.07600
C2345       C  0.72070722  0.98025082  0.51900597    -0.11500
C2346       C  0.74842396  0.98662990  0.50940253     0.05700
C2347       C  0.77602739  0.97085686  0.51429580    -0.10200
C2348       C  0.77587787  0.94906034  0.52834888    -0.11900
C2349       C  0.74814245  0.94252930  0.53787055    -0.01700
C2350       C  0.72058223  0.95849688  0.53313772    -0.10800
C2351       C  0.74984040  0.51023422  0.49505086     0.05700
H2352       H  0.79768411  0.97499615  0.50706681     0.07600
H2353       H  0.79752573  0.93714958  0.53167866     0.11100
H2354       H  0.69884879  0.95391718  0.54020359     0.11400
H2355       H  0.69916281  0.99237572  0.51573974     0.07700
C2356       C  0.72394258  0.51388033  0.48353104    -0.11500
C2357       C  0.72411251  0.53663109  0.46994184    -0.10800
C2358       C  0.75010441  0.55639767  0.46769229    -0.01700
C2359       C  0.77619815  0.55240390  0.47908236    -0.11900
C2360       C  0.77610548  0.52948996  0.49256904    -0.10300
H2361       H  0.70400429  0.99624815  0.48322150     0.07700
H2362       H  0.70373393  0.53896875  0.46134149     0.11400
H2363       H  0.79663589  0.56719012  0.47769446     0.11100
H2364       H  0.79630714  0.52727279  0.50133337     0.07600
C2365       C  0.72870752  0.78372407  0.51166304    -0.11500
C2366       C  0.75493441  0.76463522  0.50868193     0.05700
C2367       C  0.78127732  0.76799311  0.51992567    -0.10200
C2368       C  0.78123792  0.78982898  0.53400308    -0.11900
C2369       C  0.75490310  0.80881307  0.53702190    -0.01700
C2370       C  0.72870406  0.80559016  0.52564415    -0.10800
C2371       C  0.75450286  0.74083852  0.49413148     0.05700
H2372       H  0.80169217  0.75334110  0.51802917     0.07600
H2373       H  0.80179392  0.79184664  0.54249769     0.11100
H2374       H  0.70808726  0.81998219  0.52752952     0.11400
H2375       H  0.70824275  0.78190775  0.50307183     0.07700
C2376       C  0.72786444  0.72215341  0.49145015    -0.11500
C2377       C  0.72777906  0.69890834  0.47819873    -0.10800
C2378       C  0.75427140  0.69394649  0.46729121    -0.01700
C2379       C  0.78066714  0.71312278  0.46970175    -0.11900
C2380       C  0.78080057  0.73626067  0.48303156    -0.10300
H2381       H  0.70735356  0.72501934  0.49989526     0.07700
H2382       H  0.70702322  0.68460872  0.47662223     0.11400
H2383       H  0.80136241  0.71001797  0.46144107     0.11100
H2384       H  0.80148518  0.75066306  0.48463911     0.07600
C2385       C  0.63256302  0.79283345  0.62727421    -0.11500
C2386       C  0.63511415  0.76134715  0.62188739     0.05700
C2387       C  0.65850063  0.75330073  0.60923082    -0.10200
C2388       C  0.67867651  0.77610869  0.60223909    -0.11900
C2389       C  0.67645864  0.80713570  0.60817154    -0.01700
C2390       C  0.65332748  0.81529840  0.62073534    -0.10800
C2391       C  0.61326628  0.73738381  0.62942501     0.05700
H2392       H  0.66161611  0.72936070  0.60490204     0.07600
H2393       H  0.69653086  0.76939965  0.59256381     0.11100
H2394       H  0.65094697  0.83927373  0.62523902     0.11400
H2395       H  0.61430388  0.80038136  0.63643829     0.07700
C2396       C  0.60079850  0.74090560  0.64695493    -0.11500
C2397       C  0.57841491  0.72011237  0.65357662    -0.10800
C2398       C  0.56843238  0.69473186  0.64307212    -0.01700
C2399       C  0.58194397  0.69005880  0.62595153    -0.11900
C2400       C  0.60387777  0.71132914  0.61911582    -0.10300
H2401       H  0.60818720  0.75983758  0.65564824     0.07700
H2402       H  0.56886512  0.72394174  0.66697900     0.11400
H2403       H  0.57471083  0.67060786  0.61757212     0.11100
H2404       H  0.61260902  0.70781495  0.60552052     0.07600
C2405       C  0.87177307  0.78088369  0.61163661    -0.11500
C2406       C  0.86284349  0.76178970  0.62617929     0.05700
C2407       C  0.83302459  0.76571383  0.63388811    -0.10200
C2408       C  0.81241068  0.78827608  0.62705441    -0.11900
C2409       C  0.82144643  0.80752591  0.61253066    -0.01700
C2410       C  0.85137151  0.80355493  0.60492753    -0.10800
C2411       C  0.88501504  0.73826252  0.63334121     0.05700
H2412       H  0.82560701  0.75114193  0.64508300     0.07600
H2413       H  0.78952807  0.79078215  0.63320815     0.11100
H2414       H  0.85913225  0.81804112  0.59378092     0.11400
H2415       H  0.89479921  0.77858235  0.60562656     0.07700
C2416       C  0.90147033  0.71864573  0.62143842    -0.11500
C2417       C  0.92410089  0.69798501  0.62799115    -0.10800
C2418       C  0.93078601  0.69658848  0.64659023    -0.01700
C2419       C  0.91373076  0.71566610  0.65855135    -0.11900
C2420       C  0.89101371  0.73629339  0.65198031    -0.10300
H2421       H  0.89697177  0.71951168  0.60702394     0.07700
H2422       H  0.93662677  0.68337065  0.61845573     0.11400
H2423       H  0.91840595  0.71515646  0.67295035     0.11100
H2424       H  0.87879938  0.75138840  0.66139680     0.07600
C2425       C  0.86061852  0.98549946  0.60380331    -0.11500
C2426       C  0.86346639  0.99049567  0.62248884     0.05700
C2427       C  0.84513526  0.97272784  0.63445146    -0.10200
C2428       C  0.82488191  0.94982940  0.62787120    -0.11900
C2429       C  0.82260244  0.94416752  0.60920006    -0.01700
C2430       C  0.84040716  0.96251077  0.59720067    -0.10800
C2431       C  0.88823996  0.51020309  0.63088754     0.05700
H2432       H  0.84552115  0.47604387  0.64982267     0.07600
H2433       H  0.81124637  0.93628045  0.63746589     0.11100
H2434       H  0.83916991  0.95871780  0.58276455     0.11400
H2435       H  0.87476447  0.99875445  0.59431385     0.07700
C2436       C  0.90676945  0.50199202  0.64584200    -0.11500
C2437       C  0.92929628  0.52265240  0.65245942    -0.10800
C2438       C  0.93354341  0.55206426  0.64434092    -0.01700
C2439       C  0.91482834  0.56033124  0.62944903    -0.11900
C2440       C  0.89248830  0.53953235  0.62273540    -0.10300
H2441       H  0.90532499  0.98044620  0.64935874     0.07700
H2442       H  0.94341887  0.51555146  0.66391249     0.11400
H2443       H  0.91760576  0.58278704  0.62287633     0.11100
H2444       H  0.87834231  0.54644649  0.61126133     0.07600
C2445       C  0.61065412  0.51436742  0.65108791    -0.11500
C2446       C  0.61278411  0.50905705  0.63238752     0.05700
C2447       C  0.59293192  0.52539935  0.62058160    -0.10200
C2448       C  0.57092689  0.54629656  0.62735907    -0.11900
C2449       C  0.56844418  0.55133202  0.64606553    -0.01700
C2450       C  0.58866464  0.53539015  0.65788869    -0.10800
C2451       C  0.63698744  0.98857603  0.62399447     0.05700
H2452       H  0.59447756  0.52207256  0.60609178     0.07600
H2453       H  0.55571915  0.55836366  0.61791956     0.11100
H2454       H  0.58718139  0.53878577  0.67237642     0.11400
H2455       H  0.62551730  0.50175096  0.66047888     0.07700
C2456       C  0.66761221  0.98644144  0.63082017    -0.11500
C2457       C  0.68819033  0.96363713  0.62431176    -0.10800
C2458       C  0.67846023  0.94245157  0.61091969    -0.01700
C2459       C  0.64788669  0.94480031  0.60401632    -0.11900
C2460       C  0.62740675  0.96764355  0.61046628    -0.10300
H2461       H  0.67344181  0.49990454  0.64263085     0.07700
H2462       H  0.71164252  0.96248418  0.62985235     0.11400
H2463       H  0.63964481  0.92880511  0.59373119     0.11100
H2464       H  0.60378258  0.96849237  0.60514286     0.07600
C2465       C  0.61246225  0.60422479  0.73249028    -0.11500
C2466       C  0.61556295  0.63034626  0.74398035     0.05700
C2467       C  0.59588982  0.65631990  0.74103304    -0.10200
C2468       C  0.57380226  0.65611379  0.72711875    -0.11900
C2469       C  0.57012711  0.62958645  0.71626417    -0.01700
C2470       C  0.58956941  0.60365228  0.71899535    -0.10800
C2471       C  0.63871651  0.63031610  0.75911480     0.05700
H2472       H  0.59683697  0.67661040  0.74972607     0.07600
H2473       H  0.55872678  0.67623808  0.72527794     0.11100
H2474       H  0.58721626  0.58307962  0.71056302     0.11400
H2475       H  0.62767139  0.58413479  0.73384218     0.07700
C2476       C  0.64751290  0.60217526  0.76762605    -0.11500
C2477       C  0.66949930  0.60208763  0.78160132    -0.10800
C2478       C  0.68253263  0.63017325  0.78778504    -0.01700
C2479       C  0.67337366  0.65837090  0.77969670    -0.11900
C2480       C  0.65208263  0.65841748  0.76535281    -0.10300
H2481       H  0.63724444  0.58011646  0.76369213     0.07700
H2482       H  0.67606538  0.58003081  0.78773441     0.11400
H2483       H  0.68343746  0.68030961  0.78408400     0.11100
H2484       H  0.64667014  0.68053400  0.75898037     0.07600
C2485       C  0.84506141  0.64667934  0.76246401    -0.11500
C2486       C  0.86373979  0.62000858  0.75987441     0.05700
C2487       C  0.85888266  0.59388100  0.77106965    -0.10200
C2488       C  0.83604464  0.59458676  0.78468317    -0.11900
C2489       C  0.81745977  0.62137985  0.78729824    -0.01700
C2490       C  0.82221363  0.64735113  0.77598080    -0.10800
C2491       C  0.88831969  0.61981483  0.74562813     0.05700
H2492       H  0.87309707  0.57307233  0.76949159     0.07600
H2493       H  0.83294449  0.57417363  0.79314480     0.11100
H2494       H  0.80824014  0.66831542  0.77755040     0.11400
H2495       H  0.84789511  0.66699319  0.75388602     0.07700
C2496       C  0.89294869  0.59349700  0.73456756    -0.11500
C2497       C  0.91560853  0.59387686  0.72087331    -0.10800
C2498       C  0.93423671  0.62053136  0.71804092    -0.01700
C2499       C  0.92973587  0.64670782  0.72920604    -0.11900
C2500       C  0.90706290  0.64635473  0.74281925    -0.10300
H2501       H  0.87866281  0.57280120  0.73630121     0.07700
H2502       H  0.91852450  0.57331219  0.71251373     0.11400
H2503       H  0.94378055  0.66756586  0.72745034     0.11100
H2504       H  0.90438010  0.66681639  0.75128268     0.07600
C2505       C  0.97237324  0.96512186  0.99436008    -0.11500
C2506       C  0.49380423  0.98997112  0.99439518     0.05700
C2507       C  0.51579805  0.99227186  0.98027865    -0.10200
C2508       C  0.51711801  0.96951123  0.96681155    -0.11900
C2509       C  0.49619939  0.94428627  0.96709608    -0.01700
C2510       C  0.97341669  0.94263577  0.98077501    -0.10800
C2511       C  0.49594545  0.51016922  0.01074792     0.05700
H2512       H  0.53210132  0.01159511  0.97967047     0.07600
H2513       H  0.53459122  0.97156716  0.95624818     0.11100
H2514       H  0.95693428  0.92344118  0.98130479     0.11400
H2515       H  0.95539046  0.96244978  0.00513153     0.07700
C2516       C  0.96853634  0.51644402  0.02065478    -0.11500
C2517       C  0.96854571  0.53912660  0.03420022    -0.10800
C2518       C  0.49585674  0.55615647  0.03792221    -0.01700
C2519       C  0.52334389  0.54956734  0.02822058    -0.11900
C2520       C  0.52343155  0.52669743  0.01485288    -0.10300
H2521       H  0.94689639  0.50435359  0.01767972     0.07700
H2522       H  0.94701933  0.54377110  0.04148333     0.11400
H2523       H  0.54485296  0.56208986  0.03094960     0.11100
H2524       H  0.54447795  0.01707568  0.01039277     0.07600
C2525       C  0.51972591  0.78873967  0.99621823    -0.11500
C2526       C  0.49937712  0.76298614  0.99593576     0.05700
C2527       C  0.97778508  0.76036022  0.98159662    -0.10200
C2528       C  0.97648166  0.78304949  0.96797394    -0.11900
C2529       C  0.49700227  0.80862915  0.96827376    -0.01700
C2530       C  0.51866709  0.81115973  0.98252295    -0.10800
C2531       C  0.50053924  0.73914187  0.01059496     0.05700
H2532       H  0.96211907  0.74056181  0.98075104     0.07600
H2533       H  0.95966132  0.78038922  0.95711329     0.11100
H2534       H  0.53465252  0.83074052  0.98323507     0.11400
H2535       H  0.53621374  0.79191210  0.00718965     0.07700
C2536       C  0.52918865  0.73052008  0.01865378    -0.11500
C2537       C  0.53013922  0.70787159  0.03231144    -0.10800
C2538       C  0.50253121  0.69307267  0.03798959    -0.01700
C2539       C  0.97391746  0.70190763  0.03011122    -0.11900
C2540       C  0.97290082  0.72478517  0.01668089    -0.10300
H2541       H  0.55101022  0.74077451  0.01415750     0.07700
H2542       H  0.55252403  0.70138549  0.03809270     0.11400
H2543       H  0.95217751  0.69115801  0.03437826     0.11100
H2544       H  0.95035802  0.73134662  0.01115754     0.07600
C2545       C  0.59710594  0.75857385  0.89854557    -0.11500
C2546       C  0.61538207  0.76505488  0.88306215     0.05700
C2547       C  0.61201277  0.79451247  0.87477416    -0.10200
C2548       C  0.59114274  0.81661641  0.88161542    -0.11900
C2549       C  0.57372262  0.81040840  0.89727782    -0.01700
C2550       C  0.57680560  0.78119014  0.90571445    -0.10800
C2551       C  0.63839946  0.74181741  0.87574247     0.05700
H2552       H  0.62604431  0.80106826  0.86320893     0.07600
H2553       H  0.58933651  0.83905875  0.87491469     0.11100
H2554       H  0.56321865  0.77571259  0.91768939     0.11400
H2555       H  0.59828359  0.73603276  0.90513129     0.07700
C2556       C  0.65331775  0.72005685  0.88719351    -0.11500
C2557       C  0.67559667  0.69912714  0.88034262    -0.10800
C2558       C  0.68414249  0.69998096  0.86199919    -0.01700
C2559       C  0.66947905  0.72159446  0.85054224    -0.11900
C2560       C  0.64652333  0.74183160  0.85723366    -0.10300
H2561       H  0.64842542  0.71953259  0.90154735     0.07700
H2562       H  0.68678580  0.68280409  0.88950142     0.11400
H2563       H  0.67538205  0.72245629  0.83629599     0.11100
H2564       H  0.63508212  0.75733697  0.84775221     0.07600
C2565       C  0.88091637  0.78114223  0.89217529    -0.11500
C2566       C  0.89138705  0.76079169  0.87860425     0.05700
C2567       C  0.92225408  0.76342567  0.87219686    -0.10200
C2568       C  0.94227997  0.78626262  0.87929513    -0.11900
C2569       C  0.93153338  0.80690804  0.89274389    -0.01700
C2570       C  0.90070080  0.80390853  0.89915706    -0.10800
C2571       C  0.86945021  0.73745673  0.87116022     0.05700
H2572       H  0.93082104  0.74779894  0.86179733     0.07600
H2573       H  0.96598768  0.78794372  0.87416335     0.11100
H2574       H  0.89161267  0.81942594  0.90946560     0.11400
H2575       H  0.85708533  0.77981587  0.89716930     0.07700
C2576       C  0.85103842  0.71960269  0.88299426    -0.11500
C2577       C  0.82749160  0.70032569  0.87631525    -0.10800
C2578       C  0.82178876  0.69844140  0.85763147    -0.01700
C2579       C  0.84096568  0.71547921  0.84569162    -0.11900
C2580       C  0.86468950  0.73481615  0.85242599    -0.10300
H2581       H  0.85450873  0.72105251  0.89747845     0.07700
H2582       H  0.81341139  0.68723049  0.88586905     0.11400
H2583       H  0.83718586  0.71441159  0.83122606     0.11100
H2584       H  0.87849090  0.74862236  0.84306092     0.07600
C2585       C  0.85600164  0.54140394  0.88511349    -0.11500
C2586       C  0.86212671  0.51307773  0.87613897     0.05700
C2587       C  0.84615045  0.50657065  0.85996028    -0.10200
C2588       C  0.82425846  0.52762269  0.85301752    -0.11900
C2589       C  0.81788891  0.55580796  0.86203213    -0.01700
C2590       C  0.83422357  0.56266286  0.87806209    -0.10800
C2591       C  0.88034008  0.98638176  0.88267288     0.05700
H2592       H  0.83671635  0.97719867  0.85614665     0.07600
H2593       H  0.81212880  0.52168383  0.84062970     0.11100
H2594       H  0.82978171  0.58420752  0.88532511     0.11400
H2595       H  0.86816685  0.54716770  0.89750940     0.07700
C2596       C  0.89533456  0.96508577  0.87107974    -0.11500
C2597       C  0.91646316  0.94319845  0.87792240    -0.10800
C2598       C  0.92312626  0.94203580  0.89653089    -0.01700
C2599       C  0.90834484  0.96344891  0.90814745    -0.11900
C2600       C  0.88717041  0.98540530  0.90128241    -0.10300
H2601       H  0.89100721  0.96553545  0.85665016     0.07700
H2602       H  0.92747564  0.92704795  0.86859516     0.11400
H2603       H  0.91300088  0.96313175  0.92254600     0.11100
H2604       H  0.87572835  0.00126413  0.91060252     0.07600
C2605       C  0.65309639  0.53434888  0.88643767    -0.11500
C2606       C  0.63523252  0.51514709  0.87498450     0.05700
C2607       C  0.64046097  0.51665846  0.85622376    -0.10200
C2608       C  0.66329567  0.53661842  0.84908921    -0.11900
C2609       C  0.68143413  0.55554657  0.86056224    -0.01700
C2610       C  0.67591196  0.55432037  0.87931305    -0.10800
C2611       C  0.61066766  0.99433861  0.88366631     0.05700
H2612       H  0.62738331  0.50181782  0.84707867     0.07600
H2613       H  0.66706436  0.53686103  0.83460195     0.11100
H2614       H  0.68934316  0.56871504  0.88852541     0.11400
H2615       H  0.65543496  0.02840199  0.90144058     0.07700
C2616       C  0.62019689  0.97327343  0.89720341    -0.11500
C2617       C  0.59973337  0.95030100  0.90360308    -0.10800
C2618       C  0.56920153  0.94773444  0.89661867    -0.01700
C2619       C  0.55927320  0.96944326  0.88354266    -0.11900
C2620       C  0.57977787  0.99246638  0.87713512    -0.10300
H2621       H  0.64387343  0.97381029  0.90243336     0.07700
H2622       H  0.60812966  0.93407635  0.91375510     0.11400
H2623       H  0.53581530  0.96833474  0.87803022     0.11100
H2624       H  0.57600622  0.50224660  0.86277926     0.07600
loop_ 
_geom_bond_atom_site_label_1 
_geom_bond_atom_site_label_2 
_geom_bond_distance 
_geom_bond_site_symmetry_2 
_ccdc_geom_bond_type 
O1            C9   1.267       .  A
O1        Cr1331   2.014       .  S
O2            C3   1.262       .  A
O2          Cr19   1.989       .  S
C3            O4   1.263       .  A
C3          C601   1.480       .  S
O4          Cr20   1.993       .  S
O5         C1318   1.261       .  A
O5          Cr20   1.981       .  S
C6            O7   1.265   1_655  A
C6         O1317   1.261       .  A
C6          C561   1.477       .  S
O7          Cr21   2.002       .  S
O8            C9   1.259       .  A
O8          Cr21   1.973       .  S
C9          C581   1.468       .  S
O10          C18   1.261       .  A
O10       Cr1331   1.985       .  S
O11          C12   1.269       .  A
O11         Cr19   2.011       .  S
C12          O13   1.262       .  A
C12         C630   1.482       .  S
O13         Cr20   1.977       .  S
O14        C1327   1.264       .  A
O14         Cr20   2.002       .  S
C15          O16   1.259   1_655  A
C15        O1326   1.264       .  A
C15         C541   1.467       .  S
O16         Cr21   1.969       .  S
O17          C18   1.265       .  A
O17         Cr21   2.005       .  S
C18         C650   1.485       .  S
Cr19       O1313   2.014       .  S
Cr19       O1322   1.985       .  S
Cr19       O1334   1.767       .  S
Cr20       O1334   1.768       .  S
Cr21         O22   1.763   1_455  S
O22       Cr1331   1.767   1_655  S
O22       Cr1332   1.768       .  S
O23          C31   1.260       .  A
O23         Cr41   1.978       .  S
O24          C25   1.264       .  A
O24         Cr41   1.997       .  S
C25          O26   1.260       .  A
C25         C610   1.480       .  S
O26         Cr42   1.982       .  S
O27          C28   1.266       .  A
O27         Cr42   2.004       .  S
C28          O29   1.263       .  A
C28         C521   1.484       .  S
O29         Cr43   1.986       .  S
O30          C31   1.263       .  A
O30         Cr43   1.998       .  S
C31         C621   1.478       .  S
O32          C40   1.266       .  A
O32         Cr41   2.006       .  S
O33          C34   1.261       .  A
O33         Cr41   1.975       .  S
C34          O35   1.266       .  A
C34         C590   1.477       .  S
O35         Cr42   2.006       .  S
O36          C37   1.260       .  A
O36         Cr42   1.976       .  S
C37          O38   1.262       .  A
C37         C510   1.468       .  S
O38         Cr43   1.992       .  S
O39          C40   1.263       .  A
O39         Cr43   1.986       .  S
C40         C641   1.485       .  S
Cr41         O44   1.772       .  S
Cr42         O44   1.775       .  S
Cr43         O44   1.774       .  S
O45          C53   1.266       .  A
O45         Cr63   2.004       .  S
O46          C47   1.258       .  A
O46         Cr63   1.965       .  S
C47          O48   1.264       .  A
C47         C490   1.468       .  S
O48         Cr64   1.997       .  S
O49          C50   1.262       .  A
O49         Cr64   1.981       .  S
C50          O51   1.266       .  A
C50         C381   1.481       .  S
O51         Cr65   2.003       .  S
O52          C53   1.261       .  A
O52         Cr65   1.976       .  S
C53         C461   1.478       .  S
O54          C62   1.261       .  A
O54         Cr63   1.976       .  S
O55          C56   1.266       .  A
O55         Cr63   2.007       .  S
C56          O57   1.260       .  A
C56         C421   1.470       .  S
O57         Cr64   1.978       .  S
O58          C59   1.264       .  A
O58         Cr64   1.995       .  S
C59          O60   1.262       .  A
C59         C401   1.478       .  S
O60         Cr65   1.983       .  S
O61          C62   1.266       .  A
O61         Cr65   1.998       .  S
C62         C441   1.476       .  S
Cr63         O66   1.771       .  S
Cr64         O66   1.766       .  S
Cr65         O66   1.764       .  S
O67          C75   1.259       .  A
O67         Cr85   1.969   1_455  S
O68          C69   1.266       .  A
O68         Cr85   2.005   1_455  S
C69          O70   1.260       .  A
C69         C481   1.479       .  S
O70         Cr86   1.976       .  S
O71          C72   1.264       .  A
O71         Cr86   1.999       .  S
C72          O73   1.258       .  A
C72         C501   1.464       .  S
O73         Cr87   1.966   1_455  S
O74          C75   1.267       .  A
O74         Cr87   2.007   1_455  S
C75         C430   1.472       .  S
O76          C84   1.265       .  A
O76       Cr1397   2.004       .  S
O77          C78   1.260       .  A
O77       Cr1397   1.975       .  S
C78          O79   1.266       .  A
C78         C470   1.477       .  S
O79       Cr1398   2.001       .  S
O80          C81   1.262       .  A
O80       Cr1398   1.982       .  S
C81          O82   1.266       .  A
C81         C530   1.483       .  S
O82       Cr1399   2.005       .  S
O83          C84   1.258       .  A
O83       Cr1399   1.972       .  S
C84         C450   1.477       .  S
Cr85       O1388   2.004       .  S
Cr85       O1389   1.975       .  S
Cr85         O88   1.773   1_655  S
Cr86       O1391   2.001   1_455  S
Cr86       O1392   1.982   1_455  S
Cr86         O88   1.769       .  S
Cr87       O1394   2.005       .  S
Cr87       O1395   1.972       .  S
Cr87         O88   1.769   1_655  S
O89          C97   1.267       .  A
O89        Cr107   2.008       .  S
O90          C91   1.260       .  A
O90        Cr107   1.982       .  S
C91          O92   1.267       .  A
C91         C370   1.484       .  S
O92        Cr108   2.012       .  S
O93          C94   1.262       .  A
O93        Cr108   1.979       .  S
C94          O95   1.267       .  A
C94         C390   1.481       .  S
O95        Cr109   2.006       .  S
O96          C97   1.261       .  A
O96        Cr109   1.983       .  S
C97         C350   1.486       .  S
O98         C106   1.260       .  A
O98        Cr107   1.976       .  S
O99         C100   1.267       .  A
O99        Cr107   2.008       .  S
C100        O101   1.262       .  A
C100        C301   1.482       .  S
O101       Cr108   1.980       .  S
O102        C103   1.266       .  A
O102       Cr108   2.009       .  S
C103        O104   1.261       .  A
C103        C410   1.484       .  S
O104       Cr109   1.982       .  S
O105        C106   1.267       .  A
O105       Cr109   2.009       .  S
C106        C321   1.482       .  S
Cr107       O110   1.770       .  S
Cr108       O110   1.771       .  S
Cr109       O110   1.770       .  S
O111        C119   1.259       .  A
O111      Cr1441   1.969       .  S
O112        C113   1.268       .  A
O112      Cr1441   2.010       .  S
C113        O114   1.260       .  A
C113        C330   1.481       .  S
O114      Cr1442   1.976       .  S
O115        C116   1.266       .  A
O115      Cr1442   2.008       .  S
C116        O117   1.264       .  A
C116        C281   1.488       .  S
O117      Cr1443   1.989       .  S
O118        C119   1.268       .  A
O118      Cr1443   2.012       .  S
C119        C341   1.480       .  S
O120        C128   1.267       .  A
O120       Cr129   2.013       .  S
O121        C122   1.259       .  A
O121       Cr129   1.975       .  S
C122        O123   1.266       .  A
C122        C310   1.480       .  S
O123       Cr130   2.008       .  S
O124        C125   1.260       .  A
O124       Cr130   1.978       .  S
C125        O126   1.267       .  A
C125        C261   1.479       .  S
O126       Cr131   2.003       .  S
O127        C128   1.262       .  A
O127       Cr131   1.989       .  S
C128        C361   1.489       .  S
Cr129      O1423   1.969   1_455  S
Cr129      O1424   2.010   1_455  S
Cr129       O132   1.769       .  S
Cr130      O1426   1.976   1_455  S
Cr130      O1427   2.008   1_455  S
Cr130       O132   1.772       .  S
Cr131      O1429   1.989   1_455  S
Cr131      O1430   2.012   1_455  S
Cr131       O132   1.769       .  S
O133        C141   1.260       .  A
O133      Cr1463   1.987       .  S
O134        C135   1.263       .  A
O134       Cr151   1.997   1_455  S
C135        O136   1.260       .  A
C135        C250   1.472       .  S
O136       Cr152   1.977       .  S
O137        C138   1.265   1_455  A
O137       Cr152   1.994       .  S
C138       O1451   1.261       .  A
C138        C550   1.468       .  S
O139       C1450   1.261       .  A
O139       Cr153   1.970       .  S
O140        C141   1.265       .  A
O140       Cr153   2.006       .  S
C141        C221   1.481       .  S
O142        C150   1.265       .  A
O142      Cr1463   2.001       .  S
O143        C144   1.261       .  A
O143       Cr151   1.982   1_455  S
C144        O145   1.265       .  A
C144        C181   1.478       .  S
O145       Cr152   1.996       .  S
O146        C147   1.261       .  A
O146       Cr152   1.982       .  S
C147       O1460   1.263   1_455  A
C147        C570   1.475       .  S
O148       C1459   1.263       .  A
O148       Cr153   1.995       .  S
O149        C150   1.259       .  A
O149       Cr153   1.971       .  S
C150        C201   1.473       .  S
Cr151      O1445   1.987       .  S
Cr151      O1454   2.001       .  S
Cr151       O154   1.770       .  S
Cr152       O154   1.771   1_455  S
Cr153      O1466   1.772       .  S
O154      Cr1465   1.772       .  S
O155        C163   1.261       .  A
O155       Cr173   1.984       .  S
O156        C157   1.264       .  A
O156       Cr173   1.996       .  S
C157        O158   1.262       .  A
C157        C241   1.478       .  S
O158       Cr174   1.983       .  S
O159        C160   1.266       .  A
O159       Cr174   2.001       .  S
C160        O161   1.260       .  A
C160        C270   1.476       .  S
O161       Cr175   1.975       .  S
O162        C163   1.264       .  A
O162       Cr175   2.001       .  S
C163        C190   1.477       .  S
O164        C172   1.265       .  A
O164       Cr173   2.000       .  S
O165        C166   1.261       .  A
O165       Cr173   1.980       .  S
C166        O167   1.266       .  A
C166        C230   1.480       .  S
O167       Cr174   2.004       .  S
O168        C169   1.263       .  A
O168       Cr174   1.990       .  S
C169        O170   1.265       .  A
C169        C290   1.486       .  S
O170       Cr175   2.002       .  S
O171        C172   1.259       .  A
O171       Cr175   1.967       .  S
C172        C210   1.467       .  S
Cr173       O176   1.769       .  S
Cr174       O176   1.768       .  S
Cr175       O176   1.769       .  S
C177        C178   1.405       .  A
C177        C182   1.401       .  A
C177        H187   1.083       .  S
C178        C183   1.478       .  S
C178        C179   1.402       .  A
C179        C180   1.392       .  A
C179        H184   1.084       .  S
C180        C181   1.405       .  A
C180        H185   1.083       .  S
C181        C182   1.406       .  A
C182        H186   1.083       .  S
C183        C188   1.405       .  A
C183        C192   1.403       .  A
C188        C189   1.401       .  A
C188        H193   1.083       .  S
C189        C190   1.405       .  A
C189        H194   1.083       .  S
C190        C191   1.405       .  A
C191        C192   1.394       .  A
C191        H195   1.083       .  S
C192        H196   1.084       .  S
C197        C198   1.408       .  A
C197        C202   1.396       .  A
C197        H207   1.082       .  S
C198        C203   1.485       .  S
C198        C199   1.406       .  A
C199        C200   1.394       .  A
C199        H204   1.082       .  S
C200        C201   1.403       .  A
C200        H205   1.083       .  S
C201        C202   1.403       .  A
C202        H206   1.083       .  S
C203        C208   1.407       .  A
C203        C212   1.408       .  A
C208        C209   1.395       .  A
C208        H213   1.082       .  S
C209        C210   1.402       .  A
C209        H214   1.083       .  S
C210        C211   1.401       .  A
C211        C212   1.394       .  A
C211        H215   1.083       .  S
C212        H216   1.082       .  S
C217        C218   1.403       .  A
C217        C222   1.395       .  A
C217        H227   1.084       .  S
C218        C879   1.481   1_545  S
C218        C219   1.405       .  A
C219        C220   1.403       .  A
C219        H880   1.082   1_545  S
C220        C221   1.407       .  A
C220        H225   1.084       .  S
C221        C222   1.405       .  A
C222        H226   1.082       .  S
C223        C874   1.480       .  S
C223        C228   1.404       .  A
C223        C232   1.404       .  A
H224        C875   1.082       .  S
C228        C229   1.395       .  A
C228        H889   1.083       .  S
C229        C230   1.406       .  A
C229        H234   1.083       .  S
C230        C231   1.406       .  A
C231        C232   1.400       .  A
C231        H235   1.083       .  S
C232        H236   1.083       .  S
H233        C884   1.083   1_545  S
C237        C238   1.406       .  A
C237        C242   1.395       .  A
C237        H247   1.082       .  S
C238        C899   1.488       .  S
C238        C239   1.409       .  A
C239        C240   1.398       .  A
C239        H900   1.082       .  S
C240        C241   1.403       .  A
C240        H245   1.083       .  S
C241        C242   1.405       .  A
C242        H246   1.083       .  S
C243        C894   1.488   1_545  S
C243        C248   1.409       .  A
C243        C252   1.407       .  A
H244        C895   1.082       .  S
C248        C249   1.397       .  A
C248        H909   1.082       .  S
C249        C250   1.401       .  A
C249        H254   1.083       .  S
C250        C251   1.404       .  A
C251        C252   1.397       .  A
C251        H255   1.084       .  S
C252        H256   1.082       .  S
H253        C904   1.082       .  S
C257        C258   1.407       .  A
C257        C262   1.402       .  A
C257        H267   1.083       .  S
C258        C263   1.484       .  S
C258        C259   1.404       .  A
C259        C260   1.391       .  A
C259        H264   1.082       .  S
C260        C261   1.404       .  A
C260        H265   1.083       .  S
C261        C262   1.407       .  A
C262        H266   1.083       .  S
C263        C268   1.405       .  A
C263        C272   1.406       .  A
C268        C269   1.392       .  A
C268        H273   1.082       .  S
C269        C270   1.403       .  A
C269        H274   1.083       .  S
C270        C271   1.406       .  A
C271        C272   1.400       .  A
C271        H275   1.083       .  S
C272        H276   1.083       .  S
C277        C278   1.408       .  A
C277        C282   1.402       .  A
C277        H287   1.083       .  S
C278        C283   1.494       .  S
C278        C279   1.407       .  A
C279        C280   1.400       .  A
C279        H284   1.082       .  S
C280        C281   1.408       .  A
C280        H285   1.084       .  S
C281        C282   1.406       .  A
C282        H286   1.082       .  S
C283        C288   1.406       .  A
C283        C292   1.409       .  A
C288        C289   1.398       .  A
C288        H293   1.082       .  S
C289        C290   1.407       .  A
C289        H294   1.083       .  S
C290        C291   1.405       .  A
C291        C292   1.403       .  A
C291        H295   1.082       .  S
C292        H296   1.083       .  S
C297        C298   1.405       .  A
C297        C302   1.400       .  A
C297        H307   1.084       .  S
C298        C303   1.483       .  S
C298        C299   1.404       .  A
C299        C300   1.396       .  A
C299        H304   1.083       .  S
C300        C301   1.406       .  A
C300        H305   1.083       .  S
C301        C302   1.407       .  A
C302        H306   1.082       .  S
C303        C308   1.404       .  A
C303        C312   1.405       .  A
C308        C309   1.395       .  A
C308        H313   1.083       .  S
C309        C310   1.405       .  A
C309        H314   1.083       .  S
C310        C311   1.407       .  A
C311        C312   1.400       .  A
C311        H315   1.083       .  S
C312        H316   1.083       .  S
C317        C318   1.405       .  A
C317        C322   1.396       .  A
C317        H327   1.083       .  S
C318        C323   1.484       .  S
C318        C319   1.405       .  A
C319        C320   1.401       .  A
C319        H324   1.083       .  S
C320        C321   1.408       .  A
C320        H325   1.083       .  S
C321        C322   1.405       .  A
C322        H326   1.083       .  S
C323        C328   1.404       .  A
C323        C332   1.406       .  A
C328        C329   1.396       .  A
C328        H333   1.083       .  S
C329        C330   1.405       .  A
C329        H334   1.083       .  S
C330        C331   1.407       .  A
C331        C332   1.401       .  A
C331        H335   1.083       .  S
C332        H336   1.083       .  S
C337        C338   1.405       .  A
C337        C342   1.396       .  A
C337       H1003   1.084       .  S
C338        C999   1.481       .  S
C338        C339   1.404       .  A
C339        C340   1.398       .  A
C339        H344   1.082       .  S
C340        C341   1.407       .  A
C340        H345   1.083       .  S
C341        C342   1.405       .  A
C342        H346   1.082       .  S
C343        C994   1.489   1_545  S
C343        C348   1.407       .  A
C343        C352   1.405       .  A
H347        C993   1.083   1_545  S
C348        C349   1.403       .  A
C348        H353   1.084   1_545  S
C349        C350   1.408       .  A
C349        H354   1.083       .  S
C350        C351   1.406       .  A
C351        C352   1.397       .  A
C351        H355   1.083       .  S
C352       H1012   1.082       .  S
H356       C1008   1.082       .  S
C357        C358   1.408       .  A
C357        C362   1.405       .  A
C357        H367   1.084       .  S
C358       C1019   1.496       .  S
C358        C359   1.407       .  A
C359        C360   1.398       .  A
C359       H1020   1.082       .  S
C360        C361   1.406       .  A
C360        H365   1.084       .  S
C361        C362   1.408       .  A
C362        H366   1.082       .  S
C363       C1014   1.489   1_545  S
C363        C368   1.406       .  A
C363        C372   1.406       .  A
H364       C1015   1.082       .  S
C368        C369   1.403       .  A
C368       H1029   1.082   1_545  S
C369        C370   1.407       .  A
C369        H374   1.083       .  S
C370        C371   1.405       .  A
C371        C372   1.397       .  A
C371        H375   1.083       .  S
C372        H376   1.083       .  S
H373       C1024   1.082       .  S
C377        C378   1.405       .  A
C377        C382   1.399       .  A
C377        H387   1.083       .  S
C378       C1039   1.482       .  S
C378        C379   1.403       .  A
C379        C380   1.397       .  A
C379        H384   1.083       .  S
C380        C381   1.407       .  A
C380        H385   1.083       .  S
C381        C382   1.405       .  A
C382        H386   1.083       .  S
C383       C1034   1.486   1_545  S
C383        C388   1.406       .  A
C383        C392   1.405       .  A
C388        C389   1.399       .  A
C388       H1049   1.083   1_545  S
C389        C390   1.406       .  A
C389        H394   1.083       .  S
C390        C391   1.406       .  A
C391        C392   1.396       .  A
C391        H395   1.083       .  S
C392        H396   1.083       .  S
H393       C1044   1.083       .  S
C397        C398   1.404       .  A
C397        C402   1.395       .  A
C397        H407   1.083       .  S
C398        C403   1.484       .  S
C398        C399   1.407       .  A
C399        C400   1.400       .  A
C399        H404   1.082       .  S
C400        C401   1.404       .  A
C400        H405   1.083       .  S
C401        C402   1.406       .  A
C402        H406   1.083       .  S
C403        C408   1.405       .  A
C403        C412   1.405       .  A
C408        C409   1.397       .  A
C408        H413   1.082       .  S
C409        C410   1.407       .  A
C409        H414   1.084       .  S
C410        C411   1.406       .  A
C411        C412   1.399       .  A
C411        H415   1.082       .  S
C412        H416   1.084       .  S
C417        C418   1.408       .  A
C417        C422   1.394       .  A
C417        H427   1.082       .  S
C418        C423   1.491       .  S
C418        C419   1.410       .  A
C419        C420   1.399       .  A
C419        H424   1.081       .  S
C420        C421   1.402       .  A
C420        H425   1.083       .  S
C421        C422   1.401       .  A
C422        H426   1.083       .  S
C423        C428   1.409       .  A
C423        C432   1.408       .  A
C428        C429   1.395       .  A
C428        H433   1.082       .  S
C429        C430   1.401       .  A
C429        H434   1.083       .  S
C430        C431   1.403       .  A
C431        C432   1.397       .  A
C431        H435   1.083       .  S
C432        H436   1.082       .  S
C437        C438   1.405       .  A
C437        C442   1.390       .  A
C437        H447   1.082       .  S
C438        C443   1.487       .  S
C438        C439   1.409       .  A
C439        C440   1.401       .  A
C439        H444   1.083       .  S
C440        C441   1.405       .  A
C440        H445   1.083       .  S
C441        C442   1.403       .  A
C442        H446   1.083       .  S
C443        C448   1.407       .  A
C443        C452   1.406       .  A
C448        C449   1.394       .  A
C448        H453   1.082       .  S
C449        C450   1.403       .  A
C449        H454   1.083       .  S
C450        C451   1.405       .  A
C451        C452   1.398       .  A
C451        H455   1.083       .  S
C452        H456   1.082       .  S
C457        C458   1.404       .  A
C457        C462   1.397       .  A
C457        H467   1.084       .  S
C458       C1119   1.479       .  S
C458        C459   1.404       .  A
C459        C460   1.396       .  A
C459       H1120   1.083       .  S
C460        C461   1.406       .  A
C460        H465   1.084       .  S
C461        C462   1.405       .  A
C462        H466   1.082       .  S
C463       C1114   1.478   1_545  S
C463        C468   1.402       .  A
C463        C472   1.405       .  A
H464       C1115   1.081       .  S
C468        C469   1.392       .  A
C468       H1129   1.082   1_545  S
C469        C470   1.405       .  A
C469        H474   1.084       .  S
C470        C471   1.407       .  A
C471        C472   1.400       .  A
C471        H475   1.081       .  S
C472        H476   1.084       .  S
H473       C1124   1.084       .  S
C477        C478   1.405       .  A
C477        C482   1.398       .  A
C477        H487   1.084       .  S
C478       C1139   1.481   1_545  S
C478        C479   1.404       .  A
C479        C480   1.396       .  A
C479        H484   1.082       .  S
C480        C481   1.406       .  A
C480        H485   1.084       .  S
C481        C482   1.406       .  A
C482        H486   1.082       .  S
C483       C1134   1.472       .  S
C483        C488   1.403       .  A
C483        C492   1.403       .  A
C488        C489   1.393       .  A
C488       H1149   1.082       .  S
C489        C490   1.404       .  A
C489        H494   1.083       .  S
C490        C491   1.404       .  A
C491        C492   1.390       .  A
C491        H495   1.082       .  S
C492        H496   1.084       .  S
H493       C1144   1.082   1_545  S
C497        C498   1.410       .  A
C497        C502   1.396       .  A
C497        H507   1.082       .  S
C498        C503   1.490       .  S
C498        C499   1.409       .  A
C499        C500   1.393       .  A
C499        H504   1.081       .  S
C500        C501   1.399       .  A
C500        H505   1.083       .  S
C501        C502   1.400       .  A
C502        H506   1.084       .  S
C503        C508   1.408       .  A
C503        C512   1.410       .  A
C508        C509   1.395       .  A
C508        H513   1.082       .  S
C509        C510   1.402       .  A
C509        H514   1.084       .  S
C510        C511   1.399       .  A
C511        C512   1.395       .  A
C511        H515   1.083       .  S
C512        H516   1.082       .  S
C517        C518   1.403       .  A
C517        C522   1.396       .  A
C517        H527   1.083       .  S
C518        C523   1.483       .  S
C518        C519   1.405       .  A
C519        C520   1.401       .  A
C519        H524   1.083       .  S
C520        C521   1.407       .  A
C520        H525   1.082       .  S
C521        C522   1.407       .  A
C522        H526   1.083       .  S
C523        C528   1.405       .  A
C523        C532   1.403       .  A
C528        C529   1.401       .  A
C528        H533   1.084       .  S
C529        C530   1.407       .  A
C529        H534   1.082       .  S
C530        C531   1.407       .  A
C531        C532   1.396       .  A
C531        H535   1.083       .  S
C532        H536   1.083       .  S
C537        C542   1.394       .  A
C537       C1850   1.405       .  A
C537        H547   1.083   1_556  S
C538       C1199   1.479   1_556  S
C538        C539   1.406   1_655  A
C538       C1849   1.405       .  A
C539        C540   1.392       .  A
C539        H544   1.082       .  S
C540        C541   1.401   1_455  A
C540        H545   1.083       .  S
C541       C1854   1.403       .  A
C542       C1853   1.403       .  A
C542        H546   1.083       .  S
C543       C1194   1.479   1_544  S
C543        C552   1.404   1_655  A
C543       C1860   1.407       .  A
C548        C549   1.395       .  A
C548       C1855   1.407       .  A
C548        H553   1.082       .  S
C549       C1862   1.402       .  A
C549        H554   1.083       .  S
C550        C551   1.403   1_655  A
C550       C1861   1.402       .  A
C551        C552   1.391       .  A
C551        H555   1.083       .  S
C552       H1212   1.083       .  S
H556       C1208   1.083       .  S
C557        C558   1.403       .  A
C557        C562   1.393       .  A
C557        H567   1.083   1_556  S
C558        C563   1.483   1_556  S
C558       C1871   1.407   1_455  A
C559        C560   1.399       .  A
C559       C1870   1.407       .  A
C559        H564   1.083       .  S
C560       C1873   1.404       .  A
C560        H565   1.083       .  S
C561        C562   1.405   1_655  A
C561       C1872   1.404       .  A
C562        H566   1.083       .  S
C563        C568   1.407       .  A
C563       C1884   1.404   1_455  A
C568        C569   1.398       .  A
C568        H573   1.083       .  S
C569        C570   1.403       .  A
C569        H574   1.083       .  S
C570       C1883   1.405   1_455  A
C571        C572   1.395       .  A
C571       C1882   1.405       .  A
C571        H575   1.083       .  S
C572       C1875   1.404       .  A
C572        H576   1.083       .  S
C577        C578   1.409       .  A
C577        C582   1.399       .  A
C577        H587   1.082       .  S
C578        C583   1.491       .  S
C578        C579   1.408       .  A
C579        C580   1.396       .  A
C579        H584   1.082       .  S
C580        C581   1.401       .  A
C580        H585   1.084       .  S
C581        C582   1.401       .  A
C582        H586   1.084       .  S
C583        C588   1.408       .  A
C583        C592   1.408       .  A
C588        C589   1.399       .  A
C588        H593   1.082       .  S
C589        C590   1.404       .  A
C589        H594   1.083       .  S
C590        C591   1.403       .  A
C591        C592   1.396       .  A
C591        H595   1.083       .  S
C592        H596   1.082       .  S
C597        C598   1.402       .  A
C597        C602   1.392       .  A
C597        H607   1.084       .  S
C598        C603   1.480       .  S
C598        C599   1.406       .  A
C599        C600   1.402       .  A
C599        H604   1.082       .  S
C600        C601   1.406       .  A
C600        H605   1.083       .  S
C601        C602   1.406       .  A
C602        H606   1.082       .  S
C603        C608   1.403       .  A
C603        C612   1.405       .  A
C608        C609   1.393       .  A
C608        H613   1.083       .  S
C609        C610   1.405       .  A
C609        H614   1.084       .  S
C610        C611   1.407       .  A
C611        C612   1.401       .  A
C611        H615   1.082       .  S
C612        H616   1.084       .  S
C617        C618   1.406       .  A
C617        C622   1.398       .  A
C617        H627   1.082       .  S
C618       C1279   1.485   1_545  S
C618        C619   1.405       .  A
C619        C620   1.395       .  A
C619       H1280   1.083   1_545  S
C620        C621   1.406       .  A
C620        H625   1.083       .  S
C621        C622   1.404       .  A
C622        H626   1.083       .  S
C623       C1274   1.486       .  S
C623        C628   1.405       .  A
C623        C632   1.406       .  A
H624       C1275   1.083       .  S
C628        C629   1.396       .  A
C628        H633   1.082       .  S
C629        C630   1.405       .  A
C629        H634   1.083       .  S
C630        C631   1.407       .  A
C631        C632   1.401       .  A
C631        H635   1.083       .  S
C632        H636   1.084       .  S
C637        C638   1.406       .  A
C637        C642   1.398       .  A
C637       H1303   1.083       .  S
C638       C1299   1.491   1_545  S
C638        C639   1.408       .  A
C639        C640   1.401       .  A
C639        H644   1.083       .  S
C640        C641   1.405       .  A
C640        H645   1.083       .  S
C641        C642   1.407       .  A
C642        H646   1.083       .  S
C643       C1294   1.488       .  S
C643        C648   1.405       .  A
C643        C652   1.407       .  A
H647       C1293   1.083       .  S
C648        C649   1.397       .  A
C648        H653   1.083       .  S
C649        C650   1.407       .  A
C649        H654   1.083       .  S
C650        C651   1.406       .  A
C651        C652   1.401       .  A
C651        H655   1.083       .  S
C652       H1312   1.083       .  S
H656       C1308   1.082   1_545  S
O657        C665   1.266       .  A
O657      Cr1987   2.004       .  S
O658        C659   1.262       .  A
O658       Cr675   1.982       .  S
C659        O660   1.265       .  A
C659       C1257   1.477       .  S
O660       Cr676   1.993       .  S
O661       C1974   1.262       .  A
O661       Cr676   1.986       .  S
C662       O1973   1.262       .  A
C662        O663   1.263   1_655  A
C662       C1217   1.479       .  S
O663       Cr677   1.999       .  S
O664        C665   1.262       .  A
O664       Cr677   1.985       .  S
C665       C1237   1.475       .  S
O666        C674   1.262       .  A
O666      Cr1987   1.987       .  S
O667        C668   1.265       .  A
O667       Cr675   2.002       .  S
C668        O669   1.261       .  A
C668       C1286   1.479       .  S
O669       Cr676   1.980       .  S
O670       C1983   1.265       .  A
O670       Cr676   1.995       .  S
C671       O1982   1.265       .  A
C671        O672   1.262   1_655  A
C671       C1197   1.470       .  S
O672       Cr677   1.975       .  S
O673        C674   1.265       .  A
O673       Cr677   2.006       .  S
C674       C1306   1.485       .  S
Cr675      O1969   2.004       .  S
Cr675      O1978   1.987       .  S
Cr675      O1990   1.766       .  S
Cr676      O1990   1.766       .  S
Cr677       O678   1.764   1_455  S
O678      Cr1987   1.766   1_655  S
O678      Cr1988   1.766       .  S
O679        C687   1.259       .  A
O679       Cr697   1.978       .  S
O680        C681   1.265       .  A
O680       Cr697   1.999       .  S
C681        O682   1.259       .  A
C681       C1266   1.478       .  S
O682       Cr698   1.978       .  S
O683        C684   1.267       .  A
O683       Cr698   2.009       .  S
C684        O685   1.261       .  A
C684       C1177   1.484       .  S
O685       Cr699   1.980       .  S
O686        C687   1.265       .  A
O686       Cr699   2.004       .  S
C687       C1277   1.480       .  S
O688        C696   1.267       .  A
O688       Cr697   2.010       .  S
O689        C690   1.260       .  A
O689       Cr697   1.973       .  S
C690        O691   1.268       .  A
C690       C1246   1.479       .  S
O691       Cr698   2.014       .  S
O692        C693   1.260       .  A
O692       Cr698   1.973       .  S
C693        O694   1.265       .  A
C693       C1166   1.473       .  S
O694       Cr699   2.002       .  S
O695        C696   1.261       .  A
O695       Cr699   1.979       .  S
C696       C1297   1.484       .  S
Cr697       O700   1.775       .  S
Cr698       O700   1.775       .  S
Cr699       O700   1.773       .  S
O701        C709   1.267       .  A
O701       Cr719   2.008       .  S
O702        C703   1.260       .  A
O702       Cr719   1.974       .  S
C703        O704   1.266       .  A
C703       C1146   1.478       .  S
O704       Cr720   2.006       .  S
O705        C706   1.262       .  A
O705       Cr720   1.979       .  S
C706        O707   1.266       .  A
C706       C1037   1.479       .  S
O707       Cr721   2.002       .  S
O708        C709   1.259       .  A
O708       Cr721   1.972       .  S
C709       C1117   1.479       .  S
O710        C718   1.261       .  A
O710       Cr719   1.979       .  S
O711        C712   1.266       .  A
O711       Cr719   2.011       .  S
C712        O713   1.259       .  A
C712       C1077   1.470       .  S
O713       Cr720   1.980       .  S
O714        C715   1.264       .  A
O714       Cr720   1.997       .  S
C715        O716   1.261       .  A
C715       C1057   1.479       .  S
O716       Cr721   1.981       .  S
O717        C718   1.266       .  A
O717       Cr721   2.004       .  S
C718       C1097   1.481       .  S
Cr719       O722   1.771       .  S
Cr720       O722   1.767       .  S
Cr721       O722   1.767       .  S
O723        C731   1.260       .  A
O723       Cr741   1.977   1_455  S
O724        C725   1.264       .  A
O724       Cr741   1.998   1_455  S
C725        O726   1.257       .  A
C725       C1137   1.469       .  S
O726       Cr742   1.964       .  S
O727        C728   1.265       .  A
O727       Cr742   2.002       .  S
C728        O729   1.258       .  A
C728       C1157   1.466       .  S
O729       Cr743   1.969       .  S
O730        C731   1.268       .  A
O730       Cr743   2.007       .  S
C731       C1086   1.479       .  S
O732        C740   1.265       .  A
O732      Cr2053   2.004       .  S
O733        C734   1.261       .  A
O733      Cr2053   1.974       .  S
C734        O735   1.266       .  A
C734       C1126   1.478       .  S
O735      Cr2054   2.006       .  S
O736        C737   1.260       .  A
O736      Cr2054   1.973       .  S
C737        O738   1.267       .  A
C737       C1186   1.481       .  S
O738      Cr2055   2.008       .  S
O739        C740   1.259       .  A
O739      Cr2055   1.973       .  S
C740       C1106   1.478       .  S
Cr741      O2044   2.004       .  S
Cr741      O2045   1.974       .  S
Cr741       O744   1.772   1_655  S
Cr742      O2047   2.006   1_455  S
Cr742      O2048   1.973   1_455  S
Cr742       O744   1.770       .  S
Cr743      O2050   2.008   1_455  S
Cr743      O2051   1.973   1_455  S
Cr743       O744   1.769       .  S
O745        C753   1.267       .  A
O745       Cr763   2.007       .  S
O746        C747   1.261       .  A
O746       Cr763   1.985       .  S
C747        O748   1.268       .  A
C747       C1026   1.488       .  S
O748       Cr764   2.014       .  S
O749        C750   1.262       .  A
O749       Cr764   1.980       .  S
C750        O751   1.267       .  A
C750       C1046   1.483       .  S
O751       Cr765   2.009       .  S
O752        C753   1.260       .  A
O752       Cr765   1.976       .  S
C753       C1006   1.481       .  S
O754        C762   1.260       .  A
O754       Cr763   1.975       .  S
O755        C756   1.268       .  A
O755       Cr763   2.010       .  S
C756        O757   1.261       .  A
C756        C957   1.486       .  S
O757       Cr764   1.983       .  S
O758        C759   1.266       .  A
O758       Cr764   2.009       .  S
C759        O760   1.258       .  A
C759       C1066   1.479       .  S
O760       Cr765   1.972       .  S
O761        C762   1.266       .  A
O761       Cr765   2.007       .  S
C762        C977   1.480       .  S
Cr763       O766   1.769       .  S
Cr764       O766   1.769       .  S
Cr765       O766   1.772       .  S
O767        C775   1.260       .  A
O767      Cr2097   1.977       .  S
O768        C769   1.266       .  A
O768      Cr2097   2.005       .  S
C769        O770   1.261       .  A
C769        C986   1.480       .  S
O770      Cr2098   1.977       .  S
O771        C772   1.268       .  A
O771      Cr2098   2.016       .  S
C772        O773   1.261       .  A
C772        C937   1.487       .  S
O773      Cr2099   1.980       .  S
O774        C775   1.268       .  A
O774      Cr2099   2.015       .  S
C775        C997   1.485       .  S
O776        C784   1.266       .  A
O776       Cr785   2.005       .  S
O777        C778   1.261       .  A
O777       Cr785   1.981       .  S
C778        O779   1.269       .  A
C778        C966   1.488       .  S
O779       Cr786   2.016       .  S
O780        C781   1.261       .  A
O780       Cr786   1.977       .  S
C781        O782   1.267       .  A
C781        C917   1.481       .  S
O782       Cr787   2.006       .  S
O783        C784   1.261       .  A
O783       Cr787   1.986       .  S
C784       C1017   1.484       .  S
Cr785      O2079   1.977   1_455  S
Cr785      O2080   2.005   1_455  S
Cr785       O788   1.771       .  S
Cr786      O2082   1.977   1_455  S
Cr786      O2083   2.016   1_455  S
Cr786       O788   1.772       .  S
Cr787      O2085   1.980   1_455  S
Cr787      O2086   2.015   1_455  S
Cr787       O788   1.771       .  S
O789        C797   1.260       .  A
O789      Cr2119   1.984       .  S
O790        C791   1.263       .  A
O790       Cr807   1.995   1_455  S
C791        O792   1.260       .  A
C791        C906   1.472       .  S
O792       Cr808   1.977       .  S
O793        C794   1.266   1_455  A
O793       Cr808   1.997       .  S
C794       O2107   1.261       .  A
C794       C1206   1.470       .  S
O795       C2106   1.261       .  A
O795       Cr809   1.970       .  S
O796        C797   1.263       .  A
O796       Cr809   2.001       .  S
C797        C877   1.475       .  S
O798        C806   1.266       .  A
O798      Cr2119   1.999       .  S
O799        C800   1.261       .  A
O799       Cr807   1.980   1_455  S
C800        O801   1.265       .  A
C800        C837   1.475       .  S
O801       Cr808   1.997       .  S
O802        C803   1.262       .  A
O802       Cr808   1.985       .  S
C803       O2116   1.263   1_455  A
C803       C1226   1.477       .  S
O804       C2115   1.263       .  A
O804       Cr809   1.994       .  S
O805        C806   1.260       .  A
O805       Cr809   1.971       .  S
C806        C857   1.472       .  S
Cr807      O2101   1.984       .  S
Cr807      O2110   1.999       .  S
Cr807       O810   1.766       .  S
Cr808       O810   1.768   1_455  S
Cr809      O2122   1.767       .  S
O810      Cr2121   1.767       .  S
O811        C819   1.260       .  A
O811       Cr829   1.984       .  S
O812        C813   1.265       .  A
O812       Cr829   2.000       .  S
C813        O814   1.261       .  A
C813        C897   1.479       .  S
O814       Cr830   1.981       .  S
O815        C816   1.266       .  A
O815       Cr830   2.003       .  S
C816        O817   1.260       .  A
C816        C926   1.478       .  S
O817       Cr831   1.976       .  S
O818        C819   1.264       .  A
O818       Cr831   2.000       .  S
C819        C846   1.476       .  S
O820        C828   1.265       .  A
O820       Cr829   2.002       .  S
O821        C822   1.262       .  A
O821       Cr829   1.985       .  S
C822        O823   1.267       .  A
C822        C886   1.484       .  S
O823       Cr830   2.006       .  S
O824        C825   1.263       .  A
O824       Cr830   1.988       .  S
C825        O826   1.266       .  A
C825        C946   1.485       .  S
O826       Cr831   2.003       .  S
O827        C828   1.259       .  A
O827       Cr831   1.968       .  S
C828        C866   1.466       .  S
Cr829       O832   1.772       .  S
Cr830       O832   1.768       .  S
Cr831       O832   1.770       .  S
C833        C834   1.405       .  A
C833        C838   1.401       .  A
C833        H843   1.083       .  S
C834        C839   1.478       .  S
C834        C835   1.402       .  A
C835        C836   1.391       .  A
C835        H840   1.083       .  S
C836        C837   1.404       .  A
C836        H841   1.083       .  S
C837        C838   1.406       .  A
C838        H842   1.084       .  S
C839        C844   1.405       .  A
C839        C848   1.403       .  A
C844        C845   1.401       .  A
C844        H849   1.083       .  S
C845        C846   1.406       .  A
C845        H850   1.083       .  S
C846        C847   1.404       .  A
C847        C848   1.392       .  A
C847        H851   1.083       .  S
C848        H852   1.084       .  S
C853        C854   1.408       .  A
C853        C858   1.395       .  A
C853        H863   1.082       .  S
C854        C859   1.485       .  S
C854        C855   1.406       .  A
C855        C856   1.393       .  A
C855        H860   1.082       .  S
C856        C857   1.404       .  A
C856        H861   1.084       .  S
C857        C858   1.403       .  A
C858        H862   1.083       .  S
C859        C864   1.407       .  A
C859        C868   1.408       .  A
C864        C865   1.396       .  A
C864        H869   1.082       .  S
C865        C866   1.401       .  A
C865        H870   1.083       .  S
C866        C867   1.400       .  A
C867        C868   1.394       .  A
C867        H871   1.083       .  S
C868        H872   1.082       .  S
C873        C874   1.403       .  A
C873        C878   1.394       .  A
C873        H883   1.084       .  S
C874        C875   1.405       .  A
C875        C876   1.400       .  A
C876        C877   1.405       .  A
C876        H881   1.084       .  S
C877        C878   1.404       .  A
C878        H882   1.082       .  S
C879        C884   1.402       .  A
C879        C888   1.405       .  A
C884        C885   1.395       .  A
C885        C886   1.406       .  A
C885        H890   1.083       .  S
C886        C887   1.408       .  A
C887        C888   1.404       .  A
C887        H891   1.083       .  S
C888        H892   1.084       .  S
C893        C894   1.406       .  A
C893        C898   1.395       .  A
C893        H903   1.083       .  S
C894        C895   1.408       .  A
C895        C896   1.399       .  A
C896        C897   1.405       .  A
C896        H901   1.083       .  S
C897        C898   1.405       .  A
C898        H902   1.083       .  S
C899        C904   1.409       .  A
C899        C908   1.406       .  A
C904        C905   1.396       .  A
C905        C906   1.401       .  A
C905        H910   1.083       .  S
C906        C907   1.404       .  A
C907        C908   1.396       .  A
C907        H911   1.083       .  S
C908        H912   1.082       .  S
C913        C914   1.405       .  A
C913        C918   1.399       .  A
C913        H923   1.083       .  S
C914        C919   1.483       .  S
C914        C915   1.405       .  A
C915        C916   1.395       .  A
C915        H920   1.083       .  S
C916        C917   1.405       .  A
C916        H921   1.083       .  S
C917        C918   1.406       .  A
C918        H922   1.082       .  S
C919        C924   1.404       .  A
C919        C928   1.406       .  A
C924        C925   1.394       .  A
C924        H929   1.083       .  S
C925        C926   1.405       .  A
C925        H930   1.083       .  S
C926        C927   1.406       .  A
C927        C928   1.399       .  A
C927        H931   1.083       .  S
C928        H932   1.083       .  S
C933        C934   1.405       .  A
C933        C938   1.401       .  A
C933        H943   1.083       .  S
C934        C939   1.490       .  S
C934        C935   1.407       .  A
C935        C936   1.399       .  A
C935        H940   1.083       .  S
C936        C937   1.406       .  A
C936        H941   1.083       .  S
C937        C938   1.408       .  A
C938        H942   1.083       .  S
C939        C944   1.404       .  A
C939        C948   1.408       .  A
C944        C945   1.395       .  A
C944        H949   1.083       .  S
C945        C946   1.407       .  A
C945        H950   1.083       .  S
C946        C947   1.407       .  A
C947        C948   1.404       .  A
C947        H951   1.083       .  S
C948        H952   1.083       .  S
C953        C954   1.407       .  A
C953        C958   1.403       .  A
C953        H963   1.083       .  S
C954        C959   1.491       .  S
C954        C955   1.406       .  A
C955        C956   1.397       .  A
C955        H960   1.083       .  S
C956        C957   1.405       .  A
C956        H961   1.083       .  S
C957        C958   1.408       .  A
C958        H962   1.083       .  S
C959        C964   1.406       .  A
C959        C968   1.407       .  A
C964        C965   1.398       .  A
C964        H969   1.083       .  S
C965        C966   1.405       .  A
C965        H970   1.082       .  S
C966        C967   1.408       .  A
C967        C968   1.404       .  A
C967        H971   1.083       .  S
C968        H972   1.083       .  S
C973        C974   1.406       .  A
C973        C978   1.397       .  A
C973        H983   1.083       .  S
C974        C979   1.487       .  S
C974        C975   1.406       .  A
C975        C976   1.398       .  A
C975        H980   1.083       .  S
C976        C977   1.406       .  A
C976        H981   1.083       .  S
C977        C978   1.405       .  A
C978        H982   1.083       .  S
C979        C984   1.406       .  A
C979        C988   1.407       .  A
C984        C985   1.397       .  A
C984        H989   1.083       .  S
C985        C986   1.406       .  A
C985        H990   1.083       .  S
C986        C987   1.405       .  A
C987        C988   1.398       .  A
C987        H991   1.083       .  S
C988        H992   1.083       .  S
C993        C994   1.406       .  A
C993        C998   1.397       .  A
C994        C995   1.406       .  A
C995        C996   1.402       .  A
C995       H1000   1.082       .  S
C996        C997   1.408       .  A
C996       H1001   1.083       .  S
C997        C998   1.405       .  A
C998       H1002   1.082       .  S
C999       C1004   1.405       .  A
C999       C1008   1.403       .  A
C1004      C1005   1.400       .  A
C1004      H1009   1.084       .  S
C1005      C1006   1.407       .  A
C1005      H1010   1.083       .  S
C1006      C1007   1.405       .  A
C1007      C1008   1.394       .  A
C1007      H1011   1.083       .  S
C1013      C1014   1.408       .  A
C1013      C1018   1.404       .  A
C1013      H1023   1.084       .  S
C1014      C1015   1.404       .  A
C1015      C1016   1.395       .  A
C1016      C1017   1.405       .  A
C1016      H1021   1.083       .  S
C1017      C1018   1.407       .  A
C1018      H1022   1.082       .  S
C1019      C1024   1.409       .  A
C1019      C1028   1.407       .  A
C1024      C1025   1.405       .  A
C1025      C1026   1.407       .  A
C1025      H1030   1.083       .  S
C1026      C1027   1.405       .  A
C1027      C1028   1.398       .  A
C1027      H1031   1.082       .  S
C1028      H1032   1.083       .  S
C1033      C1034   1.407       .  A
C1033      C1038   1.399       .  A
C1033      H1043   1.083       .  S
C1034      C1035   1.405       .  A
C1035      C1036   1.396       .  A
C1035      H1040   1.082       .  S
C1036      C1037   1.406       .  A
C1036      H1041   1.083       .  S
C1037      C1038   1.405       .  A
C1038      H1042   1.083       .  S
C1039      C1044   1.404       .  A
C1039      C1048   1.404       .  A
C1044      C1045   1.398       .  A
C1045      C1046   1.406       .  A
C1045      H1050   1.082       .  S
C1046      C1047   1.407       .  A
C1047      C1048   1.398       .  A
C1047      H1051   1.083       .  S
C1048      H1052   1.083       .  S
C1053      C1054   1.403       .  A
C1053      C1058   1.394       .  A
C1053      H1063   1.083       .  S
C1054      C1059   1.482       .  S
C1054      C1055   1.406       .  A
C1055      C1056   1.399       .  A
C1055      H1060   1.082       .  S
C1056      C1057   1.404       .  A
C1056      H1061   1.083       .  S
C1057      C1058   1.407       .  A
C1058      H1062   1.083       .  S
C1059      C1064   1.405       .  A
C1059      C1068   1.404       .  A
C1064      C1065   1.396       .  A
C1064      H1069   1.082       .  S
C1065      C1066   1.405       .  A
C1065      H1070   1.084       .  S
C1066      C1067   1.406       .  A
C1067      C1068   1.397       .  A
C1067      H1071   1.082       .  S
C1068      H1072   1.084       .  S
C1073      C1074   1.409       .  A
C1073      C1078   1.395       .  A
C1073      H1083   1.082       .  S
C1074      C1079   1.494       .  S
C1074      C1075   1.410       .  A
C1075      C1076   1.401       .  A
C1075      H1080   1.082       .  S
C1076      C1077   1.402       .  A
C1076      H1081   1.084       .  S
C1077      C1078   1.399       .  A
C1078      H1082   1.084       .  S
C1079      C1084   1.409       .  A
C1079      C1088   1.409       .  A
C1084      C1085   1.395       .  A
C1084      H1089   1.082       .  S
C1085      C1086   1.402       .  A
C1085      H1090   1.083       .  S
C1086      C1087   1.405       .  A
C1087      C1088   1.401       .  A
C1087      H1091   1.083       .  S
C1088      H1092   1.082       .  S
C1093      C1094   1.403       .  A
C1093      C1098   1.394       .  A
C1093      H1103   1.083       .  S
C1094      C1099   1.479       .  S
C1094      C1095   1.405       .  A
C1095      C1096   1.400       .  A
C1095      H1100   1.083       .  S
C1096      C1097   1.407       .  A
C1096      H1101   1.083       .  S
C1097      C1098   1.406       .  A
C1098      H1102   1.083       .  S
C1099      C1104   1.404       .  A
C1099      C1108   1.404       .  A
C1104      C1105   1.396       .  A
C1104      H1109   1.083       .  S
C1105      C1106   1.405       .  A
C1105      H1110   1.083       .  S
C1106      C1107   1.406       .  A
C1107      C1108   1.398       .  A
C1107      H1111   1.083       .  S
C1108      H1112   1.083       .  S
C1113      C1114   1.403       .  A
C1113      C1118   1.398       .  A
C1113      H1123   1.086       .  S
C1114      C1115   1.404       .  A
C1115      C1116   1.396       .  A
C1116      C1117   1.405       .  A
C1116      H1121   1.085       .  S
C1117      C1118   1.407       .  A
C1118      H1122   1.081       .  S
C1119      C1124   1.404       .  A
C1119      C1128   1.404       .  A
C1124      C1125   1.396       .  A
C1125      C1126   1.406       .  A
C1125      H1130   1.083       .  S
C1126      C1127   1.405       .  A
C1127      C1128   1.397       .  A
C1127      H1131   1.083       .  S
C1128      H1132   1.082       .  S
C1133      C1134   1.404       .  A
C1133      C1138   1.394       .  A
C1133      H1143   1.084       .  S
C1134      C1135   1.403       .  A
C1135      C1136   1.390       .  A
C1135      H1140   1.082       .  S
C1136      C1137   1.403       .  A
C1136      H1141   1.084       .  S
C1137      C1138   1.405       .  A
C1138      H1142   1.082       .  S
C1139      C1144   1.405       .  A
C1139      C1148   1.404       .  A
C1144      C1145   1.398       .  A
C1145      C1146   1.406       .  A
C1145      H1150   1.083       .  S
C1146      C1147   1.405       .  A
C1147      C1148   1.395       .  A
C1147      H1151   1.082       .  S
C1148      H1152   1.084       .  S
C1153      C1154   1.411       .  A
C1153      C1158   1.397       .  A
C1153      H1163   1.082       .  S
C1154      C1159   1.493       .  S
C1154      C1155   1.410       .  A
C1155      C1156   1.396       .  A
C1155      H1160   1.081       .  S
C1156      C1157   1.399       .  A
C1156      H1161   1.083       .  S
C1157      C1158   1.400       .  A
C1158      H1162   1.084       .  S
C1159      C1164   1.409       .  A
C1159      C1168   1.410       .  A
C1164      C1165   1.396       .  A
C1164      H1169   1.081       .  S
C1165      C1166   1.402       .  A
C1165      H1170   1.084       .  S
C1166      C1167   1.402       .  A
C1167      C1168   1.397       .  A
C1167      H1171   1.083       .  S
C1168      H1172   1.082       .  S
C1173      C1174   1.405       .  A
C1173      C1178   1.396       .  A
C1173      H1183   1.083       .  S
C1174      C1179   1.486       .  S
C1174      C1175   1.406       .  A
C1175      C1176   1.401       .  A
C1175      H1180   1.083       .  S
C1176      C1177   1.407       .  A
C1176      H1181   1.082       .  S
C1177      C1178   1.406       .  A
C1178      H1182   1.083       .  S
C1179      C1184   1.406       .  A
C1179      C1188   1.405       .  A
C1184      C1185   1.400       .  A
C1184      H1189   1.084       .  S
C1185      C1186   1.407       .  A
C1185      H1190   1.083       .  S
C1186      C1187   1.405       .  A
C1187      C1188   1.396       .  A
C1187      H1191   1.084       .  S
C1188      H1192   1.082       .  S
C1193      C2506   1.404       .  A
C1193      C1198   1.392       .  A
C1193      H1203   1.083   1_556  S
C1194      C2505   1.404       .  A
C1194      C1195   1.407   1_655  A
C1195      C1196   1.394       .  A
C1195      H1200   1.082   1_565  S
C1196      C1197   1.402   1_455  A
C1196      H1201   1.083       .  S
C1197      C2510   1.404       .  A
C1198      C2509   1.404       .  A
C1198      H1202   1.083       .  S
C1199      C2516   1.406       .  A
C1199      C1208   1.404   1_655  A
C1204      C2511   1.406       .  A
C1204      C1205   1.395       .  A
C1204      H1209   1.082       .  S
C1205      C2518   1.403       .  A
C1205      H1210   1.083       .  S
C1206      C2517   1.403       .  A
C1206      C1207   1.404   1_655  A
C1207      C1208   1.391       .  A
C1207      H1211   1.083       .  S
C1213      C1214   1.404   1_455  A
C1213      C1218   1.395       .  A
C1213      H1223   1.083   1_556  S
C1214      C1219   1.489   1_656  S
C1214      C2527   1.410       .  A
C1215      C2526   1.410       .  A
C1215      C1216   1.399       .  A
C1215      H1220   1.082       .  S
C1216      C2529   1.403       .  A
C1216      H1221   1.083       .  S
C1217      C2528   1.403       .  A
C1217      C1218   1.406   1_655  A
C1218      H1222   1.083       .  S
C1219      C1224   1.410       .  A
C1219      C2540   1.405   1_455  A
C1224      C1225   1.400       .  A
C1224      H1229   1.082       .  S
C1225      C1226   1.403       .  A
C1225      H1230   1.083       .  S
C1226      C2539   1.405   1_455  A
C1227      C2538   1.405       .  A
C1227      C1228   1.394       .  A
C1227      H1231   1.083       .  S
C1228      C2531   1.405       .  A
C1228      H1232   1.082       .  S
C1233      C1234   1.412       .  A
C1233      C1238   1.403       .  A
C1233      H1243   1.081       .  S
C1234      C1239   1.499       .  S
C1234      C1235   1.409       .  A
C1235      C1236   1.394       .  A
C1235      H1240   1.081       .  S
C1236      C1237   1.401       .  A
C1236      H1241   1.083       .  S
C1237      C1238   1.403       .  A
C1238      H1242   1.084       .  S
C1239      C1244   1.410       .  A
C1239      C1248   1.411       .  A
C1244      C1245   1.401       .  A
C1244      H1249   1.081       .  S
C1245      C1246   1.404       .  A
C1245      H1250   1.083       .  S
C1246      C1247   1.401       .  A
C1247      C1248   1.398       .  A
C1247      H1251   1.083       .  S
C1248      H1252   1.081       .  S
C1253      C1254   1.401       .  A
C1253      C1258   1.390       .  A
C1253      H1263   1.084       .  S
C1254      C1259   1.477       .  S
C1254      C1255   1.405       .  A
C1255      C1256   1.402       .  A
C1255      H1260   1.082       .  S
C1256      C1257   1.407       .  A
C1256      H1261   1.083       .  S
C1257      C1258   1.405       .  A
C1258      H1262   1.082       .  S
C1259      C1264   1.402       .  A
C1259      C1268   1.404       .  A
C1264      C1265   1.392       .  A
C1264      H1269   1.082       .  S
C1265      C1266   1.405       .  A
C1265      H1270   1.084       .  S
C1266      C1267   1.407       .  A
C1267      C1268   1.401       .  A
C1267      H1271   1.082       .  S
C1268      H1272   1.084       .  S
C1273      C1274   1.406       .  A
C1273      C1278   1.401       .  A
C1273      H1283   1.082       .  S
C1274      C1275   1.405       .  A
C1275      C1276   1.395       .  A
C1276      C1277   1.405       .  A
C1276      H1281   1.083       .  S
C1277      C1278   1.406       .  A
C1278      H1282   1.084       .  S
C1279      C1284   1.405       .  A
C1279      C1288   1.407       .  A
C1284      C1285   1.395       .  A
C1284      H1289   1.083       .  S
C1285      C1286   1.405       .  A
C1285      H1290   1.083       .  S
C1286      C1287   1.405       .  A
C1287      C1288   1.399       .  A
C1287      H1291   1.083       .  S
C1288      H1292   1.083   1_565  S
C1293      C1294   1.406       .  A
C1293      C1298   1.399       .  A
C1294      C1295   1.406       .  A
C1295      C1296   1.400       .  A
C1295      H1300   1.083       .  S
C1296      C1297   1.406       .  A
C1296      H1301   1.083       .  S
C1297      C1298   1.406       .  A
C1298      H1302   1.083       .  S
C1299      C1304   1.406       .  A
C1299      C1308   1.407       .  A
C1304      C1305   1.398       .  A
C1304      H1309   1.083       .  S
C1305      C1306   1.407       .  A
C1305      H1310   1.083       .  S
C1306      C1307   1.405       .  A
C1307      C1308   1.401       .  A
C1307      H1311   1.083       .  S
O1313      C1321   1.267       .  A
O1314      C1315   1.262       .  A
O1314     Cr1331   1.989   1_655  S
C1315      O1316   1.263       .  A
C1315      C1913   1.480       .  S
O1316     Cr1332   1.993       .  S
O1317     Cr1332   1.981       .  S
C1318      O1319   1.265       .  A
C1318      C1873   1.477       .  S
O1319     Cr1333   2.002       .  S
O1320      C1321   1.259       .  A
O1320     Cr1333   1.973       .  S
C1321      C1893   1.468       .  S
O1322      C1330   1.261       .  A
O1323      C1324   1.269       .  A
O1323     Cr1331   2.011   1_655  S
C1324      O1325   1.262       .  A
C1324      C1942   1.482       .  S
O1325     Cr1332   1.977       .  S
O1326     Cr1332   2.002       .  S
C1327      O1328   1.259       .  A
C1327      C1853   1.467       .  S
O1328     Cr1333   1.969       .  S
O1329      C1330   1.265       .  A
O1329     Cr1333   2.005       .  S
C1330      C1962   1.485       .  S
Cr1333     O1334   1.763       .  S
O1335      C1343   1.260       .  A
O1335     Cr1353   1.978       .  S
O1336      C1337   1.264       .  A
O1336     Cr1353   1.997       .  S
C1337      O1338   1.260       .  A
C1337      C1922   1.480       .  S
O1338     Cr1354   1.982       .  S
O1339      C1340   1.266       .  A
O1339     Cr1354   2.003       .  S
C1340      O1341   1.263       .  A
C1340      C1833   1.484       .  S
O1341     Cr1355   1.986       .  S
O1342      C1343   1.263       .  A
O1342     Cr1355   1.998       .  S
C1343      C1933   1.478       .  S
O1344      C1352   1.266       .  A
O1344     Cr1353   2.006       .  S
O1345      C1346   1.261       .  A
O1345     Cr1353   1.975       .  S
C1346      O1347   1.266       .  A
C1346      C1902   1.477       .  S
O1347     Cr1354   2.006       .  S
O1348      C1349   1.260       .  A
O1348     Cr1354   1.976       .  S
C1349      O1350   1.262       .  A
C1349      C1822   1.468       .  S
O1350     Cr1355   1.992       .  S
O1351      C1352   1.263       .  A
O1351     Cr1355   1.986       .  S
C1352      C1953   1.485       .  S
Cr1353     O1356   1.772       .  S
Cr1354     O1356   1.775       .  S
Cr1355     O1356   1.774       .  S
O1357      C1365   1.266       .  A
O1357     Cr1375   2.004       .  S
O1358      C1359   1.258       .  A
O1358     Cr1375   1.965       .  S
C1359      O1360   1.264       .  A
C1359      C1802   1.468       .  S
O1360     Cr1376   1.997       .  S
O1361      C1362   1.262       .  A
O1361     Cr1376   1.981       .  S
C1362      O1363   1.266       .  A
C1362      C1693   1.481       .  S
O1363     Cr1377   2.003       .  S
O1364      C1365   1.261       .  A
O1364     Cr1377   1.976       .  S
C1365      C1773   1.478       .  S
O1366      C1374   1.261       .  A
O1366     Cr1375   1.976       .  S
O1367      C1368   1.266       .  A
O1367     Cr1375   2.007       .  S
C1368      O1369   1.260       .  A
C1368      C1733   1.470       .  S
O1369     Cr1376   1.978       .  S
O1370      C1371   1.264       .  A
O1370     Cr1376   1.995       .  S
C1371      O1372   1.262       .  A
C1371      C1713   1.478       .  S
O1372     Cr1377   1.983       .  S
O1373      C1374   1.266       .  A
O1373     Cr1377   1.998       .  S
C1374      C1753   1.476       .  S
Cr1375     O1378   1.771       .  S
Cr1376     O1378   1.766       .  S
Cr1377     O1378   1.764       .  S
O1379      C1387   1.259       .  A
O1379     Cr1397   1.969       .  S
O1380      C1381   1.266       .  A
O1380     Cr1397   2.005       .  S
C1381      O1382   1.260       .  A
C1381      C1793   1.479       .  S
O1382     Cr1398   1.976       .  S
O1383      C1384   1.264       .  A
O1383     Cr1398   1.999       .  S
C1384      O1385   1.258       .  A
C1384      C1813   1.464       .  S
O1385     Cr1399   1.966       .  S
O1386      C1387   1.267       .  A
O1386     Cr1399   2.007       .  S
C1387      C1742   1.472       .  S
O1388      C1396   1.265       .  A
O1389      C1390   1.260       .  A
C1390      O1391   1.266       .  A
C1390      C1782   1.477       .  S
O1392      C1393   1.262       .  A
C1393      O1394   1.266       .  A
C1393      C1842   1.483       .  S
O1395      C1396   1.258       .  A
C1396      C1762   1.477       .  S
Cr1397     O1400   1.773       .  S
Cr1398     O1400   1.769       .  S
Cr1399     O1400   1.769       .  S
O1401      C1409   1.267       .  A
O1401     Cr1419   2.008       .  S
O1402      C1403   1.260       .  A
O1402     Cr1419   1.982       .  S
C1403      O1404   1.267       .  A
C1403      C1682   1.484       .  S
O1404     Cr1420   2.012       .  S
O1405      C1406   1.262       .  A
O1405     Cr1420   1.979       .  S
C1406      O1407   1.267       .  A
C1406      C1702   1.481       .  S
O1407     Cr1421   2.006       .  S
O1408      C1409   1.261       .  A
O1408     Cr1421   1.983       .  S
C1409      C1662   1.486       .  S
O1410      C1418   1.260       .  A
O1410     Cr1419   1.976       .  S
O1411      C1412   1.267       .  A
O1411     Cr1419   2.008       .  S
C1412      O1413   1.262       .  A
C1412      C1613   1.482       .  S
O1413     Cr1420   1.980       .  S
O1414      C1415   1.266       .  A
O1414     Cr1420   2.009       .  S
C1415      O1416   1.261       .  A
C1415      C1722   1.484       .  S
O1416     Cr1421   1.982       .  S
O1417      C1418   1.267       .  A
O1417     Cr1421   2.009       .  S
C1418      C1633   1.482       .  S
Cr1419     O1422   1.770       .  S
Cr1420     O1422   1.771       .  S
Cr1421     O1422   1.770       .  S
O1423      C1431   1.259       .  A
O1424      C1425   1.268       .  A
C1425      O1426   1.260       .  A
C1425      C1642   1.481       .  S
O1427      C1428   1.266       .  A
C1428      O1429   1.264       .  A
C1428      C1593   1.488       .  S
O1430      C1431   1.268       .  A
C1431      C1653   1.480       .  S
O1432      C1440   1.267       .  A
O1432     Cr1441   2.013       .  S
O1433      C1434   1.259       .  A
O1433     Cr1441   1.975       .  S
C1434      O1435   1.266       .  A
C1434      C1622   1.480       .  S
O1435     Cr1442   2.008       .  S
O1436      C1437   1.260       .  A
O1436     Cr1442   1.978       .  S
C1437      O1438   1.267       .  A
C1437      C1573   1.479       .  S
O1438     Cr1443   2.003       .  S
O1439      C1440   1.262       .  A
O1439     Cr1443   1.989       .  S
C1440      C1673   1.489       .  S
Cr1441     O1444   1.769       .  S
Cr1442     O1444   1.772       .  S
Cr1443     O1444   1.769       .  S
O1445      C1453   1.260       .  A
O1446      C1447   1.263       .  A
O1446     Cr1463   1.997       .  S
C1447      O1448   1.260       .  A
C1447      C1562   1.472       .  S
O1448     Cr1464   1.977       .  S
O1449      C1450   1.265       .  A
O1449     Cr1464   1.994       .  S
C1450      C1862   1.468       .  S
O1451     Cr1465   1.970       .  S
O1452      C1453   1.265       .  A
O1452     Cr1465   2.006       .  S
C1453      C1533   1.481       .  S
O1454      C1462   1.265       .  A
O1455      C1456   1.261       .  A
O1455     Cr1463   1.982       .  S
C1456      O1457   1.265       .  A
C1456      C1493   1.478       .  S
O1457     Cr1464   1.996       .  S
O1458      C1459   1.261       .  A
O1458     Cr1464   1.982       .  S
C1459      C1882   1.475       .  S
O1460     Cr1465   1.995       .  S
O1461      C1462   1.259       .  A
O1461     Cr1465   1.971       .  S
C1462      C1513   1.473       .  S
Cr1463     O1466   1.770       .  S
Cr1464     O1466   1.771       .  S
O1467      C1475   1.261       .  A
O1467     Cr1485   1.984       .  S
O1468      C1469   1.264       .  A
O1468     Cr1485   1.996       .  S
C1469      O1470   1.262       .  A
C1469      C1553   1.478       .  S
O1470     Cr1486   1.983       .  S
O1471      C1472   1.266       .  A
O1471     Cr1486   2.001       .  S
C1472      O1473   1.260       .  A
C1472      C1582   1.476       .  S
O1473     Cr1487   1.975       .  S
O1474      C1475   1.264       .  A
O1474     Cr1487   2.001       .  S
C1475      C1502   1.477       .  S
O1476      C1484   1.265       .  A
O1476     Cr1485   2.000       .  S
O1477      C1478   1.261       .  A
O1477     Cr1485   1.980       .  S
C1478      O1479   1.266       .  A
C1478      C1542   1.480       .  S
O1479     Cr1486   2.004       .  S
O1480      C1481   1.263       .  A
O1480     Cr1486   1.990       .  S
C1481      O1482   1.265       .  A
C1481      C1602   1.486       .  S
O1482     Cr1487   2.002       .  S
O1483      C1484   1.259       .  A
O1483     Cr1487   1.967       .  S
C1484      C1522   1.467       .  S
Cr1485     O1488   1.769       .  S
Cr1486     O1488   1.768       .  S
Cr1487     O1488   1.769       .  S
C1489      C1490   1.405       .  A
C1489      C1494   1.401       .  A
C1489      H1499   1.083       .  S
C1490      C1495   1.478       .  S
C1490      C1491   1.402       .  A
C1491      C1492   1.392       .  A
C1491      H1496   1.084       .  S
C1492      C1493   1.405       .  A
C1492      H1497   1.083       .  S
C1493      C1494   1.406       .  A
C1494      H1498   1.083       .  S
C1495      C1500   1.405       .  A
C1495      C1504   1.403       .  A
C1500      C1501   1.401       .  A
C1500      H1505   1.083       .  S
C1501      C1502   1.406       .  A
C1501      H1506   1.083       .  S
C1502      C1503   1.405       .  A
C1503      C1504   1.394       .  A
C1503      H1507   1.083       .  S
C1504      H1508   1.084       .  S
C1509      C1510   1.408       .  A
C1509      C1514   1.396       .  A
C1509      H1519   1.082       .  S
C1510      C1515   1.485       .  S
C1510      C1511   1.406       .  A
C1511      C1512   1.394       .  A
C1511      H1516   1.082       .  S
C1512      C1513   1.403       .  A
C1512      H1517   1.083       .  S
C1513      C1514   1.403       .  A
C1514      H1518   1.083       .  S
C1515      C1520   1.407       .  A
C1515      C1524   1.408       .  A
C1520      C1521   1.396       .  A
C1520      H1525   1.082       .  S
C1521      C1522   1.402       .  A
C1521      H1526   1.083       .  S
C1522      C1523   1.401       .  A
C1523      C1524   1.394       .  A
C1523      H1527   1.083       .  S
C1524      H1528   1.082       .  S
C1529      C1530   1.403       .  A
C1529      C1534   1.395       .  A
C1529      H1539   1.084       .  S
C1530      C2191   1.481   1_545  S
C1530      C1531   1.405       .  A
C1531      C1532   1.403       .  A
C1531      H2192   1.082   1_545  S
C1532      C1533   1.407       .  A
C1532      H1537   1.084       .  S
C1533      C1534   1.405       .  A
C1534      H1538   1.082       .  S
C1535      C2186   1.480       .  S
C1535      C1540   1.404       .  A
C1535      C1544   1.404       .  A
H1536      C2187   1.082       .  S
C1540      C1541   1.395       .  A
C1540      H2201   1.083       .  S
C1541      C1542   1.406       .  A
C1541      H1546   1.083       .  S
C1542      C1543   1.406       .  A
C1543      C1544   1.400       .  A
C1543      H1547   1.083       .  S
C1544      H1548   1.083       .  S
H1545      C2196   1.083   1_545  S
C1549      C1550   1.406       .  A
C1549      C1554   1.395       .  A
C1549      H1559   1.082       .  S
C1550      C2211   1.488       .  S
C1550      C1551   1.409       .  A
C1551      C1552   1.398       .  A
C1551      H2212   1.082       .  S
C1552      C1553   1.403       .  A
C1552      H1557   1.083       .  S
C1553      C1554   1.405       .  A
C1554      H1558   1.083       .  S
C1555      C2206   1.488   1_545  S
C1555      C1560   1.409       .  A
C1555      C1564   1.407       .  A
H1556      C2207   1.082       .  S
C1560      C1561   1.397       .  A
C1560      H2221   1.082       .  S
C1561      C1562   1.401       .  A
C1561      H1566   1.084       .  S
C1562      C1563   1.404       .  A
C1563      C1564   1.397       .  A
C1563      H1567   1.084       .  S
C1564      H1568   1.082       .  S
H1565      C2216   1.082       .  S
C1569      C1570   1.407       .  A
C1569      C1574   1.402       .  A
C1569      H1579   1.083       .  S
C1570      C1575   1.484       .  S
C1570      C1571   1.404       .  A
C1571      C1572   1.391       .  A
C1571      H1576   1.082       .  S
C1572      C1573   1.404       .  A
C1572      H1577   1.083       .  S
C1573      C1574   1.407       .  A
C1574      H1578   1.083       .  S
C1575      C1580   1.405       .  A
C1575      C1584   1.406       .  A
C1580      C1581   1.392       .  A
C1580      H1585   1.082       .  S
C1581      C1582   1.403       .  A
C1581      H1586   1.083       .  S
C1582      C1583   1.406       .  A
C1583      C1584   1.400       .  A
C1583      H1587   1.083       .  S
C1584      H1588   1.083       .  S
C1589      C1590   1.408       .  A
C1589      C1594   1.402       .  A
C1589      H1599   1.083       .  S
C1590      C1595   1.494       .  S
C1590      C1591   1.407       .  A
C1591      C1592   1.400       .  A
C1591      H1596   1.082       .  S
C1592      C1593   1.408       .  A
C1592      H1597   1.084       .  S
C1593      C1594   1.406       .  A
C1594      H1598   1.082       .  S
C1595      C1600   1.406       .  A
C1595      C1604   1.409       .  A
C1600      C1601   1.398       .  A
C1600      H1605   1.082       .  S
C1601      C1602   1.407       .  A
C1601      H1606   1.083       .  S
C1602      C1603   1.405       .  A
C1603      C1604   1.403       .  A
C1603      H1607   1.082       .  S
C1604      H1608   1.083       .  S
C1609      C1610   1.405       .  A
C1609      C1614   1.400       .  A
C1609      H1619   1.084       .  S
C1610      C1615   1.483       .  S
C1610      C1611   1.404       .  A
C1611      C1612   1.396       .  A
C1611      H1616   1.083       .  S
C1612      C1613   1.406       .  A
C1612      H1617   1.083       .  S
C1613      C1614   1.407       .  A
C1614      H1618   1.082       .  S
C1615      C1620   1.404       .  A
C1615      C1624   1.405       .  A
C1620      C1621   1.395       .  A
C1620      H1625   1.083       .  S
C1621      C1622   1.405       .  A
C1621      H1626   1.083       .  S
C1622      C1623   1.407       .  A
C1623      C1624   1.400       .  A
C1623      H1627   1.083       .  S
C1624      H1628   1.083       .  S
C1629      C1630   1.405       .  A
C1629      C1634   1.396       .  A
C1629      H1639   1.083       .  S
C1630      C1635   1.484       .  S
C1630      C1631   1.405       .  A
C1631      C1632   1.401       .  A
C1631      H1636   1.083       .  S
C1632      C1633   1.408       .  A
C1632      H1637   1.083       .  S
C1633      C1634   1.405       .  A
C1634      H1638   1.083       .  S
C1635      C1640   1.404       .  A
C1635      C1644   1.406       .  A
C1640      C1641   1.396       .  A
C1640      H1645   1.083       .  S
C1641      C1642   1.405       .  A
C1641      H1646   1.083       .  S
C1642      C1643   1.407       .  A
C1643      C1644   1.401       .  A
C1643      H1647   1.083       .  S
C1644      H1648   1.083       .  S
C1649      C1650   1.405       .  A
C1649      C1654   1.396       .  A
C1649      H2315   1.084       .  S
C1650      C2311   1.481       .  S
C1650      C1651   1.404       .  A
C1651      C1652   1.398       .  A
C1651      H1656   1.082       .  S
C1652      C1653   1.407       .  A
C1652      H1657   1.083       .  S
C1653      C1654   1.405       .  A
C1654      H1658   1.082       .  S
C1655      C2306   1.489   1_545  S
C1655      C1660   1.407       .  A
C1655      C1664   1.405       .  A
H1659      C2305   1.083   1_545  S
C1660      C1661   1.403       .  A
C1660      H1665   1.084   1_545  S
C1661      C1662   1.408       .  A
C1661      H1666   1.083       .  S
C1662      C1663   1.406       .  A
C1663      C1664   1.397       .  A
C1663      H1667   1.083       .  S
C1664      H2324   1.082       .  S
H1668      C2320   1.082       .  S
C1669      C1670   1.408       .  A
C1669      C1674   1.405       .  A
C1669      H1679   1.084       .  S
C1670      C2331   1.496       .  S
C1670      C1671   1.407       .  A
C1671      C1672   1.398       .  A
C1671      H2332   1.082       .  S
C1672      C1673   1.406       .  A
C1672      H1677   1.084       .  S
C1673      C1674   1.408       .  A
C1674      H1678   1.082       .  S
C1675      C2326   1.489   1_545  S
C1675      C1680   1.406       .  A
C1675      C1684   1.406       .  A
H1676      C2327   1.082       .  S
C1680      C1681   1.403       .  A
C1680      H2341   1.082   1_545  S
C1681      C1682   1.407       .  A
C1681      H1686   1.083       .  S
C1682      C1683   1.405       .  A
C1683      C1684   1.397       .  A
C1683      H1687   1.083       .  S
C1684      H1688   1.083       .  S
H1685      C2336   1.082       .  S
C1689      C1690   1.405       .  A
C1689      C1694   1.399       .  A
C1689      H1699   1.083       .  S
C1690      C2351   1.482       .  S
C1690      C1691   1.403       .  A
C1691      C1692   1.397       .  A
C1691      H1696   1.083       .  S
C1692      C1693   1.407       .  A
C1692      H1697   1.083       .  S
C1693      C1694   1.405       .  A
C1694      H1698   1.083       .  S
C1695      C2346   1.486   1_545  S
C1695      C1700   1.406       .  A
C1695      C1704   1.405       .  A
C1700      C1701   1.399       .  A
C1700      H2361   1.083   1_545  S
C1701      C1702   1.406       .  A
C1701      H1706   1.083       .  S
C1702      C1703   1.406       .  A
C1703      C1704   1.396       .  A
C1703      H1707   1.083       .  S
C1704      H1708   1.083       .  S
H1705      C2356   1.083       .  S
C1709      C1710   1.404       .  A
C1709      C1714   1.395       .  A
C1709      H1719   1.083       .  S
C1710      C1715   1.484       .  S
C1710      C1711   1.407       .  A
C1711      C1712   1.400       .  A
C1711      H1716   1.082       .  S
C1712      C1713   1.404       .  A
C1712      H1717   1.083       .  S
C1713      C1714   1.406       .  A
C1714      H1718   1.083       .  S
C1715      C1720   1.405       .  A
C1715      C1724   1.405       .  A
C1720      C1721   1.397       .  A
C1720      H1725   1.082       .  S
C1721      C1722   1.407       .  A
C1721      H1726   1.084       .  S
C1722      C1723   1.406       .  A
C1723      C1724   1.399       .  A
C1723      H1727   1.082       .  S
C1724      H1728   1.084       .  S
C1729      C1730   1.408       .  A
C1729      C1734   1.394       .  A
C1729      H1739   1.082       .  S
C1730      C1735   1.491       .  S
C1730      C1731   1.410       .  A
C1731      C1732   1.399       .  A
C1731      H1736   1.081       .  S
C1732      C1733   1.402       .  A
C1732      H1737   1.083       .  S
C1733      C1734   1.401       .  A
C1734      H1738   1.083       .  S
C1735      C1740   1.409       .  A
C1735      C1744   1.408       .  A
C1740      C1741   1.395       .  A
C1740      H1745   1.082       .  S
C1741      C1742   1.401       .  A
C1741      H1746   1.083       .  S
C1742      C1743   1.403       .  A
C1743      C1744   1.397       .  A
C1743      H1747   1.083       .  S
C1744      H1748   1.082       .  S
C1749      C1750   1.405       .  A
C1749      C1754   1.390       .  A
C1749      H1759   1.082       .  S
C1750      C1755   1.487       .  S
C1750      C1751   1.409       .  A
C1751      C1752   1.401       .  A
C1751      H1756   1.083       .  S
C1752      C1753   1.405       .  A
C1752      H1757   1.083       .  S
C1753      C1754   1.403       .  A
C1754      H1758   1.083       .  S
C1755      C1760   1.407       .  A
C1755      C1764   1.406       .  A
C1760      C1761   1.394       .  A
C1760      H1765   1.082       .  S
C1761      C1762   1.403       .  A
C1761      H1766   1.083       .  S
C1762      C1763   1.405       .  A
C1763      C1764   1.398       .  A
C1763      H1767   1.083       .  S
C1764      H1768   1.082       .  S
C1769      C1770   1.404       .  A
C1769      C1774   1.397       .  A
C1769      H1779   1.084       .  S
C1770      C2431   1.479       .  S
C1770      C1771   1.404       .  A
C1771      C1772   1.396       .  A
C1771      H2432   1.083       .  S
C1772      C1773   1.406       .  A
C1772      H1777   1.084       .  S
C1773      C1774   1.405       .  A
C1774      H1778   1.082       .  S
C1775      C2426   1.478   1_545  S
C1775      C1780   1.402       .  A
C1775      C1784   1.405       .  A
H1776      C2427   1.081       .  S
C1780      C1781   1.392       .  A
C1780      H2441   1.082   1_545  S
C1781      C1782   1.405       .  A
C1781      H1786   1.084       .  S
C1782      C1783   1.407       .  A
C1783      C1784   1.400       .  A
C1783      H1787   1.081       .  S
C1784      H1788   1.084       .  S
H1785      C2436   1.084       .  S
C1789      C1790   1.405       .  A
C1789      C1794   1.398       .  A
C1789      H1799   1.084       .  S
C1790      C2451   1.481   1_545  S
C1790      C1791   1.404       .  A
C1791      C1792   1.396       .  A
C1791      H1796   1.082       .  S
C1792      C1793   1.406       .  A
C1792      H1797   1.084       .  S
C1793      C1794   1.406       .  A
C1794      H1798   1.082       .  S
C1795      C2446   1.472       .  S
C1795      C1800   1.403       .  A
C1795      C1804   1.403       .  A
C1800      C1801   1.393       .  A
C1800      H2461   1.082       .  S
C1801      C1802   1.404       .  A
C1801      H1806   1.083       .  S
C1802      C1803   1.404       .  A
C1803      C1804   1.390       .  A
C1803      H1807   1.082       .  S
C1804      H1808   1.084       .  S
H1805      C2456   1.082   1_545  S
C1809      C1810   1.410       .  A
C1809      C1814   1.396       .  A
C1809      H1819   1.082       .  S
C1810      C1815   1.490       .  S
C1810      C1811   1.409       .  A
C1811      C1812   1.393       .  A
C1811      H1816   1.081       .  S
C1812      C1813   1.399       .  A
C1812      H1817   1.083       .  S
C1813      C1814   1.400       .  A
C1814      H1818   1.084       .  S
C1815      C1820   1.408       .  A
C1815      C1824   1.410       .  A
C1820      C1821   1.395       .  A
C1820      H1825   1.082       .  S
C1821      C1822   1.402       .  A
C1821      H1826   1.084       .  S
C1822      C1823   1.399       .  A
C1823      C1824   1.395       .  A
C1823      H1827   1.083       .  S
C1824      H1828   1.082       .  S
C1829      C1830   1.403       .  A
C1829      C1834   1.396       .  A
C1829      H1839   1.083       .  S
C1830      C1835   1.483       .  S
C1830      C1831   1.405       .  A
C1831      C1832   1.401       .  A
C1831      H1836   1.083       .  S
C1832      C1833   1.407       .  A
C1832      H1837   1.082       .  S
C1833      C1834   1.407       .  A
C1834      H1838   1.083       .  S
C1835      C1840   1.405       .  A
C1835      C1844   1.403       .  A
C1840      C1841   1.401       .  A
C1840      H1845   1.084       .  S
C1841      C1842   1.407       .  A
C1841      H1846   1.082       .  S
C1842      C1843   1.407       .  A
C1843      C1844   1.396       .  A
C1843      H1847   1.083       .  S
C1844      H1848   1.083       .  S
C1849      C1854   1.394       .  A
C1849      H1859   1.083   1_556  S
C1850      C2511   1.479   1_556  S
C1850      C1851   1.406       .  A
C1851      C1852   1.392       .  A
C1851      H1856   1.082       .  S
C1852      C1853   1.401       .  A
C1852      H1857   1.083       .  S
C1854      H1858   1.083       .  S
C1855      C2506   1.479   1_544  S
C1855      C1864   1.404       .  A
C1860      C1861   1.395       .  A
C1860      H1865   1.082       .  S
C1861      H1866   1.083       .  S
C1862      C1863   1.403       .  A
C1863      C1864   1.391       .  A
C1863      H1867   1.083       .  S
C1864      H2524   1.083       .  S
H1868      C2520   1.083       .  S
C1869      C1870   1.403       .  A
C1869      C1874   1.393       .  A
C1869      H1879   1.083   1_556  S
C1870      C1875   1.483   1_556  S
C1871      C1872   1.399       .  A
C1871      H1876   1.083       .  S
C1872      H1877   1.083       .  S
C1873      C1874   1.405       .  A
C1874      H1878   1.083       .  S
C1875      C1880   1.407       .  A
C1880      C1881   1.398       .  A
C1880      H1885   1.083       .  S
C1881      C1882   1.403       .  A
C1881      H1886   1.083       .  S
C1883      C1884   1.395       .  A
C1883      H1887   1.083       .  S
C1884      H1888   1.083       .  S
C1889      C1890   1.409       .  A
C1889      C1894   1.399       .  A
C1889      H1899   1.082       .  S
C1890      C1895   1.491       .  S
C1890      C1891   1.408       .  A
C1891      C1892   1.396       .  A
C1891      H1896   1.082       .  S
C1892      C1893   1.401       .  A
C1892      H1897   1.084       .  S
C1893      C1894   1.401       .  A
C1894      H1898   1.084       .  S
C1895      C1900   1.408       .  A
C1895      C1904   1.408       .  A
C1900      C1901   1.399       .  A
C1900      H1905   1.082       .  S
C1901      C1902   1.404       .  A
C1901      H1906   1.083       .  S
C1902      C1903   1.403       .  A
C1903      C1904   1.396       .  A
C1903      H1907   1.083       .  S
C1904      H1908   1.082       .  S
C1909      C1910   1.402       .  A
C1909      C1914   1.392       .  A
C1909      H1919   1.084       .  S
C1910      C1915   1.480       .  S
C1910      C1911   1.406       .  A
C1911      C1912   1.402       .  A
C1911      H1916   1.082       .  S
C1912      C1913   1.406       .  A
C1912      H1917   1.083       .  S
C1913      C1914   1.406       .  A
C1914      H1918   1.082       .  S
C1915      C1920   1.403       .  A
C1915      C1924   1.405       .  A
C1920      C1921   1.393       .  A
C1920      H1925   1.083       .  S
C1921      C1922   1.405       .  A
C1921      H1926   1.084       .  S
C1922      C1923   1.407       .  A
C1923      C1924   1.401       .  A
C1923      H1927   1.082       .  S
C1924      H1928   1.084       .  S
C1929      C1930   1.406       .  A
C1929      C1934   1.398       .  A
C1929      H1939   1.082       .  S
C1930      C2591   1.485   1_545  S
C1930      C1931   1.405       .  A
C1931      C1932   1.395       .  A
C1931      H2592   1.083   1_545  S
C1932      C1933   1.406       .  A
C1932      H1937   1.083       .  S
C1933      C1934   1.404       .  A
C1934      H1938   1.083       .  S
C1935      C2586   1.486       .  S
C1935      C1940   1.405       .  A
C1935      C1944   1.406       .  A
H1936      C2587   1.083       .  S
C1940      C1941   1.396       .  A
C1940      H1945   1.082       .  S
C1941      C1942   1.405       .  A
C1941      H1946   1.083       .  S
C1942      C1943   1.407       .  A
C1943      C1944   1.401       .  A
C1943      H1947   1.083       .  S
C1944      H1948   1.084       .  S
C1949      C1950   1.406       .  A
C1949      C1954   1.398       .  A
C1949      H2615   1.083       .  S
C1950      C2611   1.491   1_545  S
C1950      C1951   1.408       .  A
C1951      C1952   1.401       .  A
C1951      H1956   1.083       .  S
C1952      C1953   1.405       .  A
C1952      H1957   1.083       .  S
C1953      C1954   1.407       .  A
C1954      H1958   1.083       .  S
C1955      C2606   1.488       .  S
C1955      C1960   1.405       .  A
C1955      C1964   1.407       .  A
H1959      C2605   1.083       .  S
C1960      C1961   1.397       .  A
C1960      H1965   1.083       .  S
C1961      C1962   1.407       .  A
C1961      H1966   1.083       .  S
C1962      C1963   1.406       .  A
C1963      C1964   1.401       .  A
C1963      H1967   1.083       .  S
C1964      H2624   1.083       .  S
H1968      C2620   1.082   1_545  S
O1969      C1977   1.266       .  A
O1970      C1971   1.262       .  A
O1970     Cr1987   1.982   1_655  S
C1971      O1972   1.265       .  A
C1971      C2569   1.477       .  S
O1972     Cr1988   1.993       .  S
O1973     Cr1988   1.986       .  S
C1974      O1975   1.263       .  A
C1974      C2529   1.479       .  S
O1975     Cr1989   1.999       .  S
O1976      C1977   1.262       .  A
O1976     Cr1989   1.985       .  S
C1977      C2549   1.475       .  S
O1978      C1986   1.262       .  A
O1979      C1980   1.265       .  A
O1979     Cr1987   2.002   1_655  S
C1980      O1981   1.261       .  A
C1980      C2598   1.479       .  S
O1981     Cr1988   1.980       .  S
O1982     Cr1988   1.995       .  S
C1983      O1984   1.262       .  A
C1983      C2509   1.470       .  S
O1984     Cr1989   1.975       .  S
O1985      C1986   1.265       .  A
O1985     Cr1989   2.006       .  S
C1986      C2618   1.485       .  S
Cr1989     O1990   1.764       .  S
O1991      C1999   1.259       .  A
O1991     Cr2009   1.978       .  S
O1992      C1993   1.265       .  A
O1992     Cr2009   1.999       .  S
C1993      O1994   1.259       .  A
C1993      C2578   1.478       .  S
O1994     Cr2010   1.978       .  S
O1995      C1996   1.267       .  A
O1995     Cr2010   2.009       .  S
C1996      O1997   1.261       .  A
C1996      C2489   1.484       .  S
O1997     Cr2011   1.980       .  S
O1998      C1999   1.265       .  A
O1998     Cr2011   2.004       .  S
C1999      C2589   1.480       .  S
O2000      C2008   1.267       .  A
O2000     Cr2009   2.010       .  S
O2001      C2002   1.260       .  A
O2001     Cr2009   1.973       .  S
C2002      O2003   1.268       .  A
C2002      C2558   1.479       .  S
O2003     Cr2010   2.014       .  S
O2004      C2005   1.260       .  A
O2004     Cr2010   1.973       .  S
C2005      O2006   1.265       .  A
C2005      C2478   1.473       .  S
O2006     Cr2011   2.002       .  S
O2007      C2008   1.261       .  A
O2007     Cr2011   1.979       .  S
C2008      C2609   1.484       .  S
Cr2009     O2012   1.775       .  S
Cr2010     O2012   1.775       .  S
Cr2011     O2012   1.773       .  S
O2013      C2021   1.267       .  A
O2013     Cr2031   2.008       .  S
O2014      C2015   1.260       .  A
O2014     Cr2031   1.974       .  S
C2015      O2016   1.266       .  A
C2015      C2458   1.478       .  S
O2016     Cr2032   2.006       .  S
O2017      C2018   1.262       .  A
O2017     Cr2032   1.979       .  S
C2018      O2019   1.266       .  A
C2018      C2349   1.479       .  S
O2019     Cr2033   2.002       .  S
O2020      C2021   1.259       .  A
O2020     Cr2033   1.972       .  S
C2021      C2429   1.479       .  S
O2022      C2030   1.261       .  A
O2022     Cr2031   1.979       .  S
O2023      C2024   1.266       .  A
O2023     Cr2031   2.011       .  S
C2024      O2025   1.259       .  A
C2024      C2389   1.470       .  S
O2025     Cr2032   1.980       .  S
O2026      C2027   1.264       .  A
O2026     Cr2032   1.997       .  S
C2027      O2028   1.261       .  A
C2027      C2369   1.479       .  S
O2028     Cr2033   1.981       .  S
O2029      C2030   1.266       .  A
O2029     Cr2033   2.004       .  S
C2030      C2409   1.481       .  S
Cr2031     O2034   1.771       .  S
Cr2032     O2034   1.767       .  S
Cr2033     O2034   1.767       .  S
O2035      C2043   1.260       .  A
O2035     Cr2053   1.977       .  S
O2036      C2037   1.264       .  A
O2036     Cr2053   1.998       .  S
C2037      O2038   1.257       .  A
C2037      C2449   1.469       .  S
O2038     Cr2054   1.964       .  S
O2039      C2040   1.265       .  A
O2039     Cr2054   2.002       .  S
C2040      O2041   1.258       .  A
C2040      C2469   1.466       .  S
O2041     Cr2055   1.969       .  S
O2042      C2043   1.268       .  A
O2042     Cr2055   2.007       .  S
C2043      C2398   1.479       .  S
O2044      C2052   1.265       .  A
O2045      C2046   1.261       .  A
C2046      O2047   1.266       .  A
C2046      C2438   1.478       .  S
O2048      C2049   1.260       .  A
C2049      O2050   1.267       .  A
C2049      C2498   1.481       .  S
O2051      C2052   1.259       .  A
C2052      C2418   1.478       .  S
Cr2053     O2056   1.772       .  S
Cr2054     O2056   1.770       .  S
Cr2055     O2056   1.769       .  S
O2057      C2065   1.267       .  A
O2057     Cr2075   2.007       .  S
O2058      C2059   1.261       .  A
O2058     Cr2075   1.985       .  S
C2059      O2060   1.268       .  A
C2059      C2338   1.488       .  S
O2060     Cr2076   2.014       .  S
O2061      C2062   1.262       .  A
O2061     Cr2076   1.980       .  S
C2062      O2063   1.267       .  A
C2062      C2358   1.483       .  S
O2063     Cr2077   2.009       .  S
O2064      C2065   1.260       .  A
O2064     Cr2077   1.976       .  S
C2065      C2318   1.481       .  S
O2066      C2074   1.260       .  A
O2066     Cr2075   1.975       .  S
O2067      C2068   1.268       .  A
O2067     Cr2075   2.010       .  S
C2068      O2069   1.261       .  A
C2068      C2269   1.486       .  S
O2069     Cr2076   1.983       .  S
O2070      C2071   1.266       .  A
O2070     Cr2076   2.009       .  S
C2071      O2072   1.258       .  A
C2071      C2378   1.479       .  S
O2072     Cr2077   1.972       .  S
O2073      C2074   1.266       .  A
O2073     Cr2077   2.007       .  S
C2074      C2289   1.480       .  S
Cr2075     O2078   1.769       .  S
Cr2076     O2078   1.769       .  S
Cr2077     O2078   1.772       .  S
O2079      C2087   1.260       .  A
O2080      C2081   1.266       .  A
C2081      O2082   1.261       .  A
C2081      C2298   1.480       .  S
O2083      C2084   1.268       .  A
C2084      O2085   1.261       .  A
C2084      C2249   1.487       .  S
O2086      C2087   1.268       .  A
C2087      C2309   1.485       .  S
O2088      C2096   1.266       .  A
O2088     Cr2097   2.005       .  S
O2089      C2090   1.261       .  A
O2089     Cr2097   1.981       .  S
C2090      O2091   1.269       .  A
C2090      C2278   1.488       .  S
O2091     Cr2098   2.016       .  S
O2092      C2093   1.261       .  A
O2092     Cr2098   1.977       .  S
C2093      O2094   1.267       .  A
C2093      C2229   1.481       .  S
O2094     Cr2099   2.006       .  S
O2095      C2096   1.261       .  A
O2095     Cr2099   1.986       .  S
C2096      C2329   1.484       .  S
Cr2097     O2100   1.771       .  S
Cr2098     O2100   1.772       .  S
Cr2099     O2100   1.771       .  S
O2101      C2109   1.260       .  A
O2102      C2103   1.263       .  A
O2102     Cr2119   1.995       .  S
C2103      O2104   1.260       .  A
C2103      C2218   1.472       .  S
O2104     Cr2120   1.977       .  S
O2105      C2106   1.266       .  A
O2105     Cr2120   1.997       .  S
C2106      C2518   1.470       .  S
O2107     Cr2121   1.970       .  S
O2108      C2109   1.263       .  A
O2108     Cr2121   2.001       .  S
C2109      C2189   1.475       .  S
O2110      C2118   1.266       .  A
O2111      C2112   1.261       .  A
O2111     Cr2119   1.980       .  S
C2112      O2113   1.265       .  A
C2112      C2149   1.475       .  S
O2113     Cr2120   1.997       .  S
O2114      C2115   1.262       .  A
O2114     Cr2120   1.985       .  S
C2115      C2538   1.477       .  S
O2116     Cr2121   1.994       .  S
O2117      C2118   1.260       .  A
O2117     Cr2121   1.971       .  S
C2118      C2169   1.472       .  S
Cr2119     O2122   1.766       .  S
Cr2120     O2122   1.768       .  S
O2123      C2131   1.260       .  A
O2123     Cr2141   1.984       .  S
O2124      C2125   1.265       .  A
O2124     Cr2141   2.000       .  S
C2125      O2126   1.261       .  A
C2125      C2209   1.479       .  S
O2126     Cr2142   1.981       .  S
O2127      C2128   1.266       .  A
O2127     Cr2142   2.003       .  S
C2128      O2129   1.260       .  A
C2128      C2238   1.478       .  S
O2129     Cr2143   1.976       .  S
O2130      C2131   1.264       .  A
O2130     Cr2143   2.000       .  S
C2131      C2158   1.476       .  S
O2132      C2140   1.265       .  A
O2132     Cr2141   2.002       .  S
O2133      C2134   1.262       .  A
O2133     Cr2141   1.985       .  S
C2134      O2135   1.267       .  A
C2134      C2198   1.484       .  S
O2135     Cr2142   2.006       .  S
O2136      C2137   1.263       .  A
O2136     Cr2142   1.988       .  S
C2137      O2138   1.266       .  A
C2137      C2258   1.485       .  S
O2138     Cr2143   2.003       .  S
O2139      C2140   1.259       .  A
O2139     Cr2143   1.968       .  S
C2140      C2178   1.466       .  S
Cr2141     O2144   1.772       .  S
Cr2142     O2144   1.768       .  S
Cr2143     O2144   1.770       .  S
C2145      C2146   1.405       .  A
C2145      C2150   1.401       .  A
C2145      H2155   1.083       .  S
C2146      C2151   1.478       .  S
C2146      C2147   1.402       .  A
C2147      C2148   1.391       .  A
C2147      H2152   1.083       .  S
C2148      C2149   1.404       .  A
C2148      H2153   1.083       .  S
C2149      C2150   1.406       .  A
C2150      H2154   1.084       .  S
C2151      C2156   1.405       .  A
C2151      C2160   1.403       .  A
C2156      C2157   1.401       .  A
C2156      H2161   1.083       .  S
C2157      C2158   1.406       .  A
C2157      H2162   1.083       .  S
C2158      C2159   1.404       .  A
C2159      C2160   1.392       .  A
C2159      H2163   1.083       .  S
C2160      H2164   1.084       .  S
C2165      C2166   1.408       .  A
C2165      C2170   1.395       .  A
C2165      H2175   1.082       .  S
C2166      C2171   1.485       .  S
C2166      C2167   1.406       .  A
C2167      C2168   1.393       .  A
C2167      H2172   1.082       .  S
C2168      C2169   1.404       .  A
C2168      H2173   1.084       .  S
C2169      C2170   1.403       .  A
C2170      H2174   1.083       .  S
C2171      C2176   1.407       .  A
C2171      C2180   1.408       .  A
C2176      C2177   1.396       .  A
C2176      H2181   1.082       .  S
C2177      C2178   1.401       .  A
C2177      H2182   1.083       .  S
C2178      C2179   1.400       .  A
C2179      C2180   1.394       .  A
C2179      H2183   1.083       .  S
C2180      H2184   1.082       .  S
C2185      C2186   1.403       .  A
C2185      C2190   1.394       .  A
C2185      H2195   1.084       .  S
C2186      C2187   1.405       .  A
C2187      C2188   1.400       .  A
C2188      C2189   1.405       .  A
C2188      H2193   1.084       .  S
C2189      C2190   1.404       .  A
C2190      H2194   1.082       .  S
C2191      C2196   1.402       .  A
C2191      C2200   1.405       .  A
C2196      C2197   1.395       .  A
C2197      C2198   1.406       .  A
C2197      H2202   1.083       .  S
C2198      C2199   1.408       .  A
C2199      C2200   1.404       .  A
C2199      H2203   1.083       .  S
C2200      H2204   1.084       .  S
C2205      C2206   1.406       .  A
C2205      C2210   1.395       .  A
C2205      H2215   1.082       .  S
C2206      C2207   1.408       .  A
C2207      C2208   1.399       .  A
C2208      C2209   1.405       .  A
C2208      H2213   1.083       .  S
C2209      C2210   1.405       .  A
C2210      H2214   1.083       .  S
C2211      C2216   1.409       .  A
C2211      C2220   1.406       .  A
C2216      C2217   1.396       .  A
C2217      C2218   1.401       .  A
C2217      H2222   1.083       .  S
C2218      C2219   1.404       .  A
C2219      C2220   1.396       .  A
C2219      H2223   1.083       .  S
C2220      H2224   1.082       .  S
C2225      C2226   1.405       .  A
C2225      C2230   1.399       .  A
C2225      H2235   1.083       .  S
C2226      C2231   1.483       .  S
C2226      C2227   1.405       .  A
C2227      C2228   1.395       .  A
C2227      H2232   1.083       .  S
C2228      C2229   1.405       .  A
C2228      H2233   1.083       .  S
C2229      C2230   1.406       .  A
C2230      H2234   1.082       .  S
C2231      C2236   1.404       .  A
C2231      C2240   1.406       .  A
C2236      C2237   1.394       .  A
C2236      H2241   1.083       .  S
C2237      C2238   1.405       .  A
C2237      H2242   1.083       .  S
C2238      C2239   1.406       .  A
C2239      C2240   1.399       .  A
C2239      H2243   1.083       .  S
C2240      H2244   1.083       .  S
C2245      C2246   1.405       .  A
C2245      C2250   1.401       .  A
C2245      H2255   1.083       .  S
C2246      C2251   1.490       .  S
C2246      C2247   1.407       .  A
C2247      C2248   1.399       .  A
C2247      H2252   1.083       .  S
C2248      C2249   1.406       .  A
C2248      H2253   1.083       .  S
C2249      C2250   1.408       .  A
C2250      H2254   1.083       .  S
C2251      C2256   1.404       .  A
C2251      C2260   1.408       .  A
C2256      C2257   1.395       .  A
C2256      H2261   1.083       .  S
C2257      C2258   1.407       .  A
C2257      H2262   1.083       .  S
C2258      C2259   1.407       .  A
C2259      C2260   1.404       .  A
C2259      H2263   1.083       .  S
C2260      H2264   1.083       .  S
C2265      C2266   1.407       .  A
C2265      C2270   1.403       .  A
C2265      H2275   1.083       .  S
C2266      C2271   1.491       .  S
C2266      C2267   1.406       .  A
C2267      C2268   1.397       .  A
C2267      H2272   1.083       .  S
C2268      C2269   1.405       .  A
C2268      H2273   1.083       .  S
C2269      C2270   1.408       .  A
C2270      H2274   1.083       .  S
C2271      C2276   1.406       .  A
C2271      C2280   1.407       .  A
C2276      C2277   1.398       .  A
C2276      H2281   1.083       .  S
C2277      C2278   1.405       .  A
C2277      H2282   1.082       .  S
C2278      C2279   1.408       .  A
C2279      C2280   1.404       .  A
C2279      H2283   1.083       .  S
C2280      H2284   1.083       .  S
C2285      C2286   1.406       .  A
C2285      C2290   1.397       .  A
C2285      H2295   1.083       .  S
C2286      C2291   1.487       .  S
C2286      C2287   1.406       .  A
C2287      C2288   1.398       .  A
C2287      H2292   1.083       .  S
C2288      C2289   1.406       .  A
C2288      H2293   1.083       .  S
C2289      C2290   1.405       .  A
C2290      H2294   1.083       .  S
C2291      C2296   1.406       .  A
C2291      C2300   1.407       .  A
C2296      C2297   1.397       .  A
C2296      H2301   1.083       .  S
C2297      C2298   1.406       .  A
C2297      H2302   1.083       .  S
C2298      C2299   1.405       .  A
C2299      C2300   1.398       .  A
C2299      H2303   1.083       .  S
C2300      H2304   1.083       .  S
C2305      C2306   1.406       .  A
C2305      C2310   1.397       .  A
C2306      C2307   1.406       .  A
C2307      C2308   1.402       .  A
C2307      H2312   1.082       .  S
C2308      C2309   1.408       .  A
C2308      H2313   1.083       .  S
C2309      C2310   1.405       .  A
C2310      H2314   1.082       .  S
C2311      C2316   1.405       .  A
C2311      C2320   1.403       .  A
C2316      C2317   1.400       .  A
C2316      H2321   1.084       .  S
C2317      C2318   1.407       .  A
C2317      H2322   1.083       .  S
C2318      C2319   1.405       .  A
C2319      C2320   1.394       .  A
C2319      H2323   1.083       .  S
C2325      C2326   1.408       .  A
C2325      C2330   1.404       .  A
C2325      H2335   1.084       .  S
C2326      C2327   1.404       .  A
C2327      C2328   1.395       .  A
C2328      C2329   1.405       .  A
C2328      H2333   1.083       .  S
C2329      C2330   1.407       .  A
C2330      H2334   1.082       .  S
C2331      C2336   1.409       .  A
C2331      C2340   1.407       .  A
C2336      C2337   1.405       .  A
C2337      C2338   1.407       .  A
C2337      H2342   1.083       .  S
C2338      C2339   1.405       .  A
C2339      C2340   1.398       .  A
C2339      H2343   1.082       .  S
C2340      H2344   1.083       .  S
C2345      C2346   1.407       .  A
C2345      C2350   1.399       .  A
C2345      H2355   1.083       .  S
C2346      C2347   1.405       .  A
C2347      C2348   1.396       .  A
C2347      H2352   1.082       .  S
C2348      C2349   1.406       .  A
C2348      H2353   1.084       .  S
C2349      C2350   1.405       .  A
C2350      H2354   1.083       .  S
C2351      C2356   1.404       .  A
C2351      C2360   1.404       .  A
C2356      C2357   1.398       .  A
C2357      C2358   1.406       .  A
C2357      H2362   1.082       .  S
C2358      C2359   1.407       .  A
C2359      C2360   1.398       .  A
C2359      H2363   1.083       .  S
C2360      H2364   1.083       .  S
C2365      C2366   1.403       .  A
C2365      C2370   1.394       .  A
C2365      H2375   1.083       .  S
C2366      C2371   1.482       .  S
C2366      C2367   1.406       .  A
C2367      C2368   1.399       .  A
C2367      H2372   1.082       .  S
C2368      C2369   1.404       .  A
C2368      H2373   1.083       .  S
C2369      C2370   1.407       .  A
C2370      H2374   1.083       .  S
C2371      C2376   1.405       .  A
C2371      C2380   1.404       .  A
C2376      C2377   1.396       .  A
C2376      H2381   1.082       .  S
C2377      C2378   1.405       .  A
C2377      H2382   1.084       .  S
C2378      C2379   1.406       .  A
C2379      C2380   1.397       .  A
C2379      H2383   1.082       .  S
C2380      H2384   1.084       .  S
C2385      C2386   1.409       .  A
C2385      C2390   1.395       .  A
C2385      H2395   1.082       .  S
C2386      C2391   1.494       .  S
C2386      C2387   1.410       .  A
C2387      C2388   1.401       .  A
C2387      H2392   1.082       .  S
C2388      C2389   1.402       .  A
C2388      H2393   1.084       .  S
C2389      C2390   1.399       .  A
C2390      H2394   1.084       .  S
C2391      C2396   1.409       .  A
C2391      C2400   1.409       .  A
C2396      C2397   1.395       .  A
C2396      H2401   1.082       .  S
C2397      C2398   1.402       .  A
C2397      H2402   1.083       .  S
C2398      C2399   1.405       .  A
C2399      C2400   1.401       .  A
C2399      H2403   1.083       .  S
C2400      H2404   1.082       .  S
C2405      C2406   1.403       .  A
C2405      C2410   1.394       .  A
C2405      H2415   1.083       .  S
C2406      C2411   1.479       .  S
C2406      C2407   1.405       .  A
C2407      C2408   1.400       .  A
C2407      H2412   1.083       .  S
C2408      C2409   1.407       .  A
C2408      H2413   1.083       .  S
C2409      C2410   1.406       .  A
C2410      H2414   1.083       .  S
C2411      C2416   1.404       .  A
C2411      C2420   1.404       .  A
C2416      C2417   1.396       .  A
C2416      H2421   1.083       .  S
C2417      C2418   1.405       .  A
C2417      H2422   1.083       .  S
C2418      C2419   1.406       .  A
C2419      C2420   1.398       .  A
C2419      H2423   1.083       .  S
C2420      H2424   1.083       .  S
C2425      C2426   1.403       .  A
C2425      C2430   1.398       .  A
C2425      H2435   1.086       .  S
C2426      C2427   1.404       .  A
C2427      C2428   1.396       .  A
C2428      C2429   1.405       .  A
C2428      H2433   1.085       .  S
C2429      C2430   1.407       .  A
C2430      H2434   1.081       .  S
C2431      C2436   1.404       .  A
C2431      C2440   1.404       .  A
C2436      C2437   1.396       .  A
C2437      C2438   1.406       .  A
C2437      H2442   1.083       .  S
C2438      C2439   1.405       .  A
C2439      C2440   1.397       .  A
C2439      H2443   1.083       .  S
C2440      H2444   1.082       .  S
C2445      C2446   1.404       .  A
C2445      C2450   1.394       .  A
C2445      H2455   1.084       .  S
C2446      C2447   1.403       .  A
C2447      C2448   1.390       .  A
C2447      H2452   1.082       .  S
C2448      C2449   1.403       .  A
C2448      H2453   1.084       .  S
C2449      C2450   1.405       .  A
C2450      H2454   1.082       .  S
C2451      C2456   1.405       .  A
C2451      C2460   1.404       .  A
C2456      C2457   1.398       .  A
C2457      C2458   1.406       .  A
C2457      H2462   1.083       .  S
C2458      C2459   1.405       .  A
C2459      C2460   1.395       .  A
C2459      H2463   1.082       .  S
C2460      H2464   1.084       .  S
C2465      C2466   1.411       .  A
C2465      C2470   1.397       .  A
C2465      H2475   1.082       .  S
C2466      C2471   1.493       .  S
C2466      C2467   1.410       .  A
C2467      C2468   1.396       .  A
C2467      H2472   1.081       .  S
C2468      C2469   1.399       .  A
C2468      H2473   1.083       .  S
C2469      C2470   1.400       .  A
C2470      H2474   1.084       .  S
C2471      C2476   1.409       .  A
C2471      C2480   1.410       .  A
C2476      C2477   1.396       .  A
C2476      H2481   1.081       .  S
C2477      C2478   1.402       .  A
C2477      H2482   1.084       .  S
C2478      C2479   1.402       .  A
C2479      C2480   1.397       .  A
C2479      H2483   1.083       .  S
C2480      H2484   1.082       .  S
C2485      C2486   1.405       .  A
C2485      C2490   1.396       .  A
C2485      H2495   1.083       .  S
C2486      C2491   1.486       .  S
C2486      C2487   1.406       .  A
C2487      C2488   1.401       .  A
C2487      H2492   1.084       .  S
C2488      C2489   1.407       .  A
C2488      H2493   1.082       .  S
C2489      C2490   1.406       .  A
C2490      H2494   1.083       .  S
C2491      C2496   1.406       .  A
C2491      C2500   1.405       .  A
C2496      C2497   1.400       .  A
C2496      H2501   1.084       .  S
C2497      C2498   1.407       .  A
C2497      H2502   1.083       .  S
C2498      C2499   1.405       .  A
C2499      C2500   1.396       .  A
C2499      H2503   1.084       .  S
C2500      H2504   1.082       .  S
C2505      C2510   1.392       .  A
C2505      H2515   1.083   1_556  S
C2506      C2507   1.407       .  A
C2507      C2508   1.394       .  A
C2507      H2512   1.082   1_565  S
C2508      C2509   1.402       .  A
C2508      H2513   1.083       .  S
C2510      H2514   1.083       .  S
C2511      C2520   1.404       .  A
C2516      C2517   1.395       .  A
C2516      H2521   1.082       .  S
C2517      H2522   1.083       .  S
C2518      C2519   1.404       .  A
C2519      C2520   1.391       .  A
C2519      H2523   1.083       .  S
C2525      C2526   1.404       .  A
C2525      C2530   1.395       .  A
C2525      H2535   1.083   1_556  S
C2526      C2531   1.489   1_556  S
C2527      C2528   1.399       .  A
C2527      H2532   1.082       .  S
C2528      H2533   1.083       .  S
C2529      C2530   1.406       .  A
C2530      H2534   1.083       .  S
C2531      C2536   1.410       .  A
C2536      C2537   1.400       .  A
C2536      H2541   1.082       .  S
C2537      C2538   1.403       .  A
C2537      H2542   1.083       .  S
C2539      C2540   1.394       .  A
C2539      H2543   1.083       .  S
C2540      H2544   1.082       .  S
C2545      C2546   1.412       .  A
C2545      C2550   1.403       .  A
C2545      H2555   1.081       .  S
C2546      C2551   1.499       .  S
C2546      C2547   1.409       .  A
C2547      C2548   1.394       .  A
C2547      H2552   1.081       .  S
C2548      C2549   1.401       .  A
C2548      H2553   1.083       .  S
C2549      C2550   1.403       .  A
C2550      H2554   1.084       .  S
C2551      C2556   1.410       .  A
C2551      C2560   1.411       .  A
C2556      C2557   1.401       .  A
C2556      H2561   1.081       .  S
C2557      C2558   1.404       .  A
C2557      H2562   1.083       .  S
C2558      C2559   1.401       .  A
C2559      C2560   1.398       .  A
C2559      H2563   1.083       .  S
C2560      H2564   1.081       .  S
C2565      C2566   1.401       .  A
C2565      C2570   1.390       .  A
C2565      H2575   1.084       .  S
C2566      C2571   1.477       .  S
C2566      C2567   1.405       .  A
C2567      C2568   1.402       .  A
C2567      H2572   1.082       .  S
C2568      C2569   1.407       .  A
C2568      H2573   1.083       .  S
C2569      C2570   1.405       .  A
C2570      H2574   1.082       .  S
C2571      C2576   1.402       .  A
C2571      C2580   1.404       .  A
C2576      C2577   1.392       .  A
C2576      H2581   1.083       .  S
C2577      C2578   1.405       .  A
C2577      H2582   1.084       .  S
C2578      C2579   1.407       .  A
C2579      C2580   1.401       .  A
C2579      H2583   1.082       .  S
C2580      H2584   1.084       .  S
C2585      C2586   1.406       .  A
C2585      C2590   1.401       .  A
C2585      H2595   1.082       .  S
C2586      C2587   1.405       .  A
C2587      C2588   1.395       .  A
C2588      C2589   1.405       .  A
C2588      H2593   1.083       .  S
C2589      C2590   1.406       .  A
C2590      H2594   1.084       .  S
C2591      C2596   1.405       .  A
C2591      C2600   1.407       .  A
C2596      C2597   1.395       .  A
C2596      H2601   1.083       .  S
C2597      C2598   1.405       .  A
C2597      H2602   1.083       .  S
C2598      C2599   1.405       .  A
C2599      C2600   1.399       .  A
C2599      H2603   1.083       .  S
C2600      H2604   1.083   1_565  S
C2605      C2606   1.406       .  A
C2605      C2610   1.399       .  A
C2606      C2607   1.406       .  A
C2607      C2608   1.400       .  A
C2607      H2612   1.083       .  S
C2608      C2609   1.406       .  A
C2608      H2613   1.083       .  S
C2609      C2610   1.407       .  A
C2610      H2614   1.083       .  S
C2611      C2616   1.406       .  A
C2611      C2620   1.407       .  A
C2616      C2617   1.398       .  A
C2616      H2621   1.083       .  S
C2617      C2618   1.407       .  A
C2617      H2622   1.083       .  S
C2618      C2619   1.405       .  A
C2619      C2620   1.401       .  A
C2619      H2623   1.083       .  S
