geometry optimzed in LAMMPS
_audit_creation_date              2020-11-30 
_audit_creation_method            'lammps2cif' 
_symmetry_space_group_name_H-M    'P1' 
_symmetry_Int_Tables_number       1 
_symmetry_cell_setting            triclinic 
loop_ 
_symmetry_equiv_pos_as_xyz 
  x,y,z 
_cell_length_a                    48.90067841 
_cell_length_b                    48.88555766783374 
_cell_length_c                    30.690988980201727 
_cell_angle_alpha                 90.16781049710629 
_cell_angle_beta                  89.90077736848045 
_cell_angle_gamma                 90.0872938726144 
loop_ 
_atom_site_label 
_atom_site_type_symbol 
_atom_site_fract_x 
_atom_site_fract_y 
_atom_site_fract_z 
_atom_site_charge 
C1          C  0.88521533  0.72059264  0.47197569     0.86400
C2          C  0.86348795  0.74307047  0.47298890    -0.53800
C3          C  0.86904075  0.76283796  0.99909889     0.09400
C4          C  0.89238213  0.75497067  0.03147381     0.20300
C5          C  0.91274355  0.73537659  0.47283382    -0.54500
C6          C  0.91792392  0.75132026  0.00217999     0.09500
C7          C  0.88267824  0.70742520  0.51722136    -0.54100
C8          C  0.88533896  0.72550519  0.04666888     0.10000
H9          H  0.84700534  0.74350408  0.44936697     0.14500
H10         H  0.89599919  0.76970935  0.05827876     0.00300
H11         H  0.92833313  0.73240354  0.44798118     0.14800
H12         H  0.87847302  0.68598459  0.01970304     0.14600
O13         O  0.89549020  0.58697090  0.29586980    -0.74500
O14         O  0.89910614  0.64545240  0.21205029    -0.74500
O15         O  0.90058654  0.64189714  0.30067364    -0.74600
O16         O  0.89390899  0.59019084  0.20763805    -0.74600
O17         O  0.84864317  0.59432659  0.21029159    -0.74600
O18         O  0.85510291  0.64581437  0.30309181    -0.74500
O19         O  0.85388598  0.64945190  0.21464370    -0.74500
O20         O  0.85026131  0.59087276  0.29848267    -0.74600
Ni21       Ni  0.89889239  0.61603949  0.25388882     1.25400
Ni22       Ni  0.85038360  0.62031329  0.25663568     1.25400
C23         C  0.87236322  0.57930181  0.31146191     0.87700
C24         C  0.87704860  0.65704636  0.19900439     0.87600
C25         C  0.87882256  0.65169033  0.31778359     0.87700
C26         C  0.87009291  0.58345139  0.19389792     0.87800
C27         C  0.85206258  0.19206194  0.05409569     0.86400
C28         C  0.83355526  0.16699661  0.05100530    -0.53800
C29         C  0.83707186  0.15173324  0.01428609     0.09400
C30         C  0.86075067  0.16406992  0.48231275     0.20300
C31         C  0.88125758  0.18119489  0.04799725    -0.54500
C32         C  0.88515833  0.16570297  0.01175926     0.09500
C33         C  0.84724172  0.20820561  0.01197506    -0.54100
C34         C  0.85336966  0.19455026  0.47424509     0.10000
H35         H  0.81852653  0.16185737  0.07580888     0.14500
H36         H  0.86402520  0.15188912  0.45216374     0.00300
H37         H  0.89812102  0.18559881  0.06978134     0.14800
H38         H  0.84263482  0.22992959  0.01165680     0.14600
O39         O  0.87226169  0.27196324  0.30527581    -0.74500
O40         O  0.87447772  0.32658249  0.21614026    -0.74500
O41         O  0.87590254  0.32714149  0.30365516    -0.74600
O42         O  0.87038920  0.27141531  0.21731866    -0.74600
O43         O  0.82493940  0.27493844  0.21802568    -0.74600
O44         O  0.83037331  0.32965335  0.30622184    -0.74500
O45         O  0.82923086  0.33042576  0.21817343    -0.74500
O46         O  0.82685768  0.27446828  0.30646428    -0.74600
Ni47       Ni  0.87484041  0.29911275  0.26044874     1.25400
Ni48       Ni  0.82619652  0.30243679  0.26224340     1.25400
C49         C  0.84923950  0.26436957  0.32119783     0.89300
C50         C  0.85250697  0.33806245  0.20291029     0.87600
C51         C  0.85395139  0.33764798  0.31897346     0.87700
C52         C  0.84684071  0.26391697  0.20354754     0.87800
O53         O  0.84211688  0.48753356  0.46355310    -0.74500
O54         O  0.83548230  0.43529826  0.05553331    -0.74500
O55         O  0.84025781  0.49049672  0.04892634    -0.74600
O56         O  0.83755363  0.43220280  0.46551923    -0.74600
O57         O  0.88302462  0.42894904  0.46254825    -0.74600
O58         O  0.88557115  0.48644845  0.05002571    -0.74500
O59         O  0.88073646  0.43136459  0.05634938    -0.74500
O60         O  0.88740395  0.48413534  0.46135222    -0.74600
Ni61       Ni  0.83653908  0.46101177  0.00831558     1.25400
Ni62       Ni  0.88506453  0.45694811  0.00935883     1.25400
C63         C  0.86516863  0.49510739  0.44761220     0.87700
C64         C  0.85717588  0.42453066  0.07132448     0.87600
C65         C  0.86370433  0.49841278  0.06265040     0.87700
C66         C  0.85929637  0.42136805  0.44996445     0.87800
C67         C  0.73459733  0.85054209  0.03627316     0.86400
C68         C  0.76120383  0.83416143  0.03616798    -0.53800
C69         C  0.77862657  0.83965499  0.00238272     0.09400
C70         C  0.76604979  0.86294547  0.47852310     0.20300
C71         C  0.74304406  0.88055696  0.03293166    -0.54500
C72         C  0.76021159  0.88624637  0.99951059     0.09500
C73         C  0.72175103  0.84428384  0.99175447    -0.54100
C74         C  0.73779387  0.85149835  0.46462212     0.10000
H75         H  0.76562270  0.81911041  0.06113381     0.14500
H76         H  0.78000171  0.86768840  0.45103109     0.00300
H77         H  0.73723349  0.89589230  0.05693142     0.14800
H78         H  0.70101964  0.83730585  0.98660316     0.14600
O79         O  0.60487166  0.86989411  0.21078405    -0.74500
O80         O  0.66311996  0.86946804  0.29399792    -0.74500
O81         O  0.66006359  0.86831702  0.20599278    -0.74600
O82         O  0.60784701  0.87025083  0.29851654    -0.74600
O83         O  0.60730658  0.82467138  0.29940983    -0.74600
O84         O  0.65819776  0.82264032  0.20629259    -0.74500
O85         O  0.66266541  0.82399335  0.29468124    -0.74500
O86         O  0.60307833  0.82445831  0.21164889    -0.74600
Ni87       Ni  0.63408235  0.87108744  0.25231886     1.25400
Ni88       Ni  0.63287018  0.82229826  0.25309383     1.25400
C89         C  0.59402599  0.84747966  0.19756346     0.87700
C90         C  0.67254221  0.84685421  0.30849417     0.87600
C91         C  0.66704826  0.84504497  0.19040513     0.87700
C92         C  0.59858314  0.84762958  0.31355959     0.87800
C93         C  0.20992572  0.88810943  0.46123770     0.86400
C94         C  0.18683862  0.86701846  0.46159514    -0.53800
C95         C  0.17002637  0.86860924  0.99289387     0.09400
C96         C  0.17745895  0.89205685  0.02533311     0.20300
C97         C  0.19571128  0.91594793  0.46610378    -0.54500
C98         C  0.17848541  0.91798694  0.99683127     0.09500
C99         C  0.22455709  0.88449888  0.50491004    -0.54100
C100        C  0.20768595  0.88683393  0.03791304     0.10000
H101        H  0.18519349  0.85164224  0.43615267     0.14500
H102        H  0.16340406  0.89440257  0.05338926     0.00300
H103        H  0.19863413  0.93333142  0.44489032     0.14800
H104        H  0.24683327  0.88249305  0.00662564     0.14600
O105        O  0.28673060  0.89946771  0.20653788    -0.74500
O106        O  0.34606987  0.89211768  0.28759846    -0.74500
O107        O  0.34131347  0.89328789  0.20001972    -0.74600
O108        O  0.29125383  0.89821916  0.29432924    -0.74600
O109        O  0.28613798  0.85285595  0.29380354    -0.74600
O110        O  0.33621918  0.84804560  0.19900762    -0.74500
O111        O  0.34097614  0.84688248  0.28677970    -0.74500
O112        O  0.28142889  0.85429945  0.20558593    -0.74600
Ni113      Ni  0.31649342  0.89736420  0.24722221     1.25400
Ni114      Ni  0.31096110  0.84889368  0.24627165     1.25400
C115        C  0.27445327  0.87813141  0.19202184     0.87700
C116        C  0.35353962  0.86833455  0.30043215     0.87600
C117        C  0.34710878  0.86984374  0.18389940     0.87700
C118        C  0.28043567  0.87641123  0.30954003     0.87800
O119        O  0.49618203  0.83365752  0.05222951    -0.74500
O120        O  0.44566080  0.83516886  0.44877534    -0.74500
O121        O  0.50091246  0.83114508  0.45441786    -0.74600
O122        O  0.44111539  0.83895885  0.04497738    -0.74600
O123        O  0.44545440  0.88423306  0.04189380    -0.74600
O124        O  0.50430208  0.87659556  0.45443651    -0.74500
O125        O  0.44916999  0.88053688  0.44814647    -0.74500
O126        O  0.50045529  0.87887461  0.04971200    -0.74600
Ni127      Ni  0.47039659  0.83343973  0.00486820     1.25400
Ni128      Ni  0.47507315  0.88192615  0.00197531     1.25400
C129        C  0.50716263  0.85580118  0.06643763     0.87700
C130        C  0.43855762  0.85838968  0.43315669     0.87600
C131        C  0.51251542  0.85316988  0.44137555     0.87700
C132        C  0.43342268  0.86293905  0.05649661     0.87800
C133        C  0.71833789  0.04155202  0.46149999     0.86400
C134        C  0.74155452  0.06264417  0.46064058    -0.53800
C135        C  0.75945149  0.06113532  0.99826055     0.09400
C136        C  0.75195875  0.03724962  0.02984565     0.20300
C137        C  0.73347915  0.01454242  0.46820663    -0.54500
C138        C  0.75313042  0.01113772  0.00072594     0.09500
C139        C  0.70307940  0.04657877  0.50429581    -0.54100
C140        C  0.72112544  0.04143780  0.03959695     0.10000
H141        H  0.74475610  0.07560296  0.43245794     0.14500
H142        H  0.76439404  0.03612692  0.05985666     0.00300
H143        H  0.73372040  0.99776077  0.44528831     0.14800
H144        H  0.68323639  0.04528379  0.00472494     0.14600
O145        O  0.63833612  0.02840336  0.20471080    -0.74500
O146        O  0.58114179  0.03367975  0.29042363    -0.74500
O147        O  0.58333225  0.03478265  0.20253481    -0.74600
O148        O  0.63587845  0.02763549  0.29298094    -0.74600
O149        O  0.64124251  0.07283592  0.29468682    -0.74600
O150        O  0.58881818  0.08008114  0.20399222    -0.74500
O151        O  0.58633322  0.07886885  0.29229497    -0.74500
O152        O  0.64385309  0.07353474  0.20621468    -0.74600
Ni153      Ni  0.60954554  0.02953520  0.24751422     1.25400
Ni154      Ni  0.61527879  0.07795299  0.24929882     1.25400
C155        C  0.65061660  0.04994681  0.19107525     0.87700
C156        C  0.57426062  0.05708747  0.30579311     0.87600
C157        C  0.57723528  0.05866394  0.18869405     0.87700
C158        C  0.64691693  0.04905363  0.30934534     0.87800
C159        C  0.19217170  0.07905217  0.04493859     0.86400
C160        C  0.16549084  0.09527373  0.04550205    -0.53800
C161        C  0.14836432  0.09036858  0.01109600     0.09400
C162        C  0.15979024  0.07049049  0.47940095     0.20300
C163        C  0.18381606  0.04900859  0.03942611    -0.54500
C164        C  0.16706899  0.04391574  0.00531789     0.09500
C165        C  0.20550534  0.08575217  0.00093216    -0.54100
C166        C  0.18841895  0.08084201  0.46515946     0.10000
H167        H  0.16143765  0.11047695  0.07047617     0.14500
H168        H  0.14570345  0.06630757  0.45191666     0.00300
H169        H  0.19009297  0.03282408  0.06142252     0.14800
H170        H  0.22687872  0.09097378  0.99675644     0.14600
O171        O  0.32342274  0.05827699  0.21389207    -0.74500
O172        O  0.26724516  0.05882899  0.30070884    -0.74500
O173        O  0.26828864  0.05946292  0.21307274    -0.74600
O174        O  0.32270479  0.05810811  0.30210300    -0.74600
O175        O  0.32345340  0.10371152  0.30312034    -0.74600
O176        O  0.27003748  0.10511195  0.21336470    -0.74500
O177        O  0.26771521  0.10430348  0.30126696    -0.74500
O178        O  0.32509818  0.10382251  0.21502501    -0.74600
Ni179      Ni  0.29541566  0.05704877  0.25753010     1.25400
Ni180      Ni  0.29659354  0.10587193  0.25837058     1.25400
C181        C  0.33327430  0.08081746  0.19953933     0.87700
C182        C  0.25765400  0.08153810  0.31477599     0.87600
C183        C  0.26056051  0.08264937  0.19830081     0.87700
C184        C  0.33231017  0.08071607  0.31683399     0.87800
O185        O  0.48466166  0.08983446  0.45883302    -0.74500
O186        O  0.42943260  0.09814777  0.05108406    -0.74500
O187        O  0.48444957  0.09207911  0.04840524    -0.74600
O188        O  0.42944086  0.09575149  0.45990937    -0.74600
O189        O  0.42483125  0.05040606  0.45946121    -0.74600
O190        O  0.47910800  0.04677920  0.04967413    -0.74500
O191        O  0.42430074  0.05287385  0.05120158    -0.74500
O192        O  0.47999676  0.04458176  0.45812886    -0.74600
Ni193      Ni  0.45646911  0.09629920  0.00555033     1.25400
Ni194      Ni  0.45142594  0.04780200  0.00650914     1.25400
C195        C  0.49157169  0.06637039  0.44368418     0.87700
C196        C  0.41786036  0.07657852  0.06604555     0.87600
C197        C  0.49081487  0.06851300  0.06339466     0.87700
C198        C  0.41764031  0.07403388  0.44591796     0.87800
C199        C  0.08000532  0.73394045  0.03338063     0.86400
C200        C  0.09795887  0.75982001  0.03290744    -0.53800
C201        C  0.09232692  0.77784687  0.99992489     0.09400
C202        C  0.06648514  0.76904652  0.47434259     0.20300
C203        C  0.05078050  0.74495913  0.03338347    -0.54500
C204        C  0.04476207  0.76181434  0.99991580     0.09500
C205        C  0.08454170  0.72143235  0.98825706    -0.54100
C206        C  0.07413690  0.73989702  0.45894959     0.10000
H207        H  0.11431078  0.76374654  0.05566780     0.14500
H208        H  0.06160003  0.78342265  0.44761629     0.00300
H209        H  0.03597829  0.74005183  0.05868558     0.14800
H210        H  0.09067248  0.70029504  0.98327327     0.14600
O211        O  0.04758440  0.66562654  0.28842654    -0.74500
O212        O  0.04546778  0.60536081  0.20797992    -0.74500
O213        O  0.04259217  0.61051695  0.29593165    -0.74600
O214        O  0.05096361  0.65989456  0.20024957    -0.74600
O215        O  0.09633744  0.65640800  0.20563599    -0.74600
O216        O  0.08784869  0.60645972  0.29897971    -0.74500
O217        O  0.09072890  0.60170119  0.21126767    -0.74500
O218        O  0.09272946  0.66144287  0.29322353    -0.74600
Ni219      Ni  0.04501286  0.63555866  0.24806406     1.25400
Ni220      Ni  0.09348601  0.63139697  0.25253366     1.25400
C221        C  0.07045601  0.67341515  0.30461979     0.87700
C222        C  0.06769688  0.59376630  0.19566610     0.87600
C223        C  0.06408046  0.60007278  0.31299177     0.87700
C224        C  0.07509838  0.66576436  0.18682150     0.87800
C225        C  0.03964277  0.20927085  0.45484747     0.86400
C226        C  0.06157262  0.18706679  0.45719843    -0.53800
C227        C  0.05980711  0.16846084  0.98803192     0.09400
C228        C  0.03677146  0.17645924  0.02070503     0.20300
C229        C  0.01227279  0.19396105  0.45954630    -0.54500
C230        C  0.01061555  0.17717896  0.99275724     0.09500
C231        C  0.04197710  0.22507419  0.49791703    -0.54100
C232        C  0.04220756  0.20677936  0.03234196     0.10000
H233        H  0.07750977  0.18526407  0.43270358     0.14500
H234        H  0.03490293  0.16287982  0.04943454     0.00300
H235        H  0.99502586  0.19561844  0.43774860     0.14800
H236        H  0.04572815  0.24562709  0.00038587     0.14600
O237        O  0.02974523  0.34289598  0.28456036    -0.74500
O238        O  0.02902485  0.28590671  0.19830401    -0.74500
O239        O  0.02834527  0.28778287  0.28612860    -0.74600
O240        O  0.03052267  0.34120282  0.19669501    -0.74600
O241        O  0.07607322  0.33978555  0.19689815    -0.74600
O242        O  0.07391300  0.28643568  0.28750148    -0.74500
O243        O  0.07444500  0.28425711  0.19898270    -0.74500
O244        O  0.07518448  0.34166873  0.28500525    -0.74600
Ni245      Ni  0.02782732  0.31444752  0.24132018     1.25400
Ni246      Ni  0.07656103  0.31296396  0.24206605     1.25400
C247        C  0.05264538  0.35169166  0.29934040     0.87700
C248        C  0.05147150  0.27555684  0.18424819     0.87600
C249        C  0.05065011  0.27847041  0.30183624     0.87700
C250        C  0.05361356  0.34970398  0.18257731     0.87800
O251        O  0.08266748  0.49979302  0.04428295    -0.74500
O252        O  0.07625715  0.44580876  0.44588459    -0.74500
O253        O  0.07905596  0.50113864  0.44951537    -0.74600
O254        O  0.08101750  0.44434071  0.04041681    -0.74600
O255        O  0.03546676  0.44593162  0.04196930    -0.74600
O256        O  0.03366657  0.50346249  0.45326778    -0.74500
O257        O  0.03087204  0.44788346  0.44872062    -0.74500
O258        O  0.03722297  0.50129172  0.04568140    -0.74600
Ni259      Ni  0.08287485  0.47285265  0.99834932     1.25400
Ni260      Ni  0.03412944  0.47453036  0.99994006     1.25400
C261        C  0.06040560  0.50963202  0.06001902     0.87700
C262        C  0.05279710  0.43775993  0.43229232     0.87600
C263        C  0.05642965  0.51214225  0.43804141     0.87700
C264        C  0.05807908  0.43548874  0.05464519     0.87800
O265        O  0.15031400  0.94894725  0.03696870    -0.74500
O266        O  0.09267903  0.00161949  0.03958520    -0.74500
O267        O  0.09592774  0.94652103  0.03763991    -0.74600
O268        O  0.14713411  0.00506553  0.03808357    -0.74600
O269        O  0.14464276  0.00816601  0.46657889    -0.74600
O270        O  0.09672000  0.94589768  0.46695027    -0.74500
O271        O  0.09091222  0.00074064  0.46615003    -0.74500
O272        O  0.15135299  0.95197471  0.46731000    -0.74600
Ni273      Ni  0.12168585  0.97554441  0.04067162     1.25400
Ni274      Ni  0.12113814  0.97657546  0.46408088     1.25400
C275        C  0.15929302  0.94106188  0.99990853     0.87700
C276        C  0.08228901  0.01028294  0.00396776     0.87600
C277        C  0.08774822  0.93675614  0.00125103     0.87700
C278        C  0.15272483  0.01752559  0.00244378     0.87800
O279        O  0.98058190  0.14949638  0.03584205    -0.74500
O280        O  0.92884926  0.09057630  0.04297945    -0.74500
O281        O  0.98362289  0.09525968  0.03813234    -0.74600
O282        O  0.92461563  0.14525675  0.04132164    -0.74600
O283        O  0.91996178  0.14238630  0.47041606    -0.74600
O284        O  0.98249698  0.09567417  0.46469717    -0.74500
O285        O  0.92792700  0.08868333  0.47040564    -0.74500
O286        O  0.97561550  0.14998136  0.46521916    -0.74600
Ni287      Ni  0.95441547  0.12036388  0.04219278     1.25400
Ni288      Ni  0.95144915  0.11932339  0.46505621     1.25400
C289        C  0.98723396  0.15838350  0.99807208     0.87700
C290        C  0.92022854  0.07951109  0.00765911     0.87600
C291        C  0.99319091  0.08750170  0.00140741     0.87700
C292        C  0.91098963  0.15042090  0.00671528     0.87800
O293        O  0.95082925  0.77925817  0.03847124    -0.74500
O294        O  0.00382003  0.83669179  0.03467873    -0.74500
O295        O  0.94884473  0.83358234  0.03776757    -0.74600
O296        O  0.00697146  0.78219046  0.03513929    -0.74600
O297        O  0.00566576  0.78651883  0.46827668    -0.74600
O298        O  0.94396729  0.83475442  0.47024626    -0.74500
O299        O  0.99912137  0.84037372  0.46795215    -0.74500
O300        O  0.94956574  0.78017117  0.47062206    -0.74600
Ni301      Ni  0.97772965  0.80777784  0.03910152     1.25400
Ni302      Ni  0.97447321  0.81027363  0.46662795     1.25400
C303        C  0.94174851  0.76976449  0.00244641     0.87700
C304        C  0.01124757  0.84674825  0.99800365     0.87600
C305        C  0.93781693  0.84093800  0.00199266     0.87700
C306        C  0.01844435  0.77622822  0.99878021     0.87800
O307        O  0.78167527  0.97944011  0.03969941    -0.74500
O308        O  0.83698279  0.92392046  0.03823278    -0.74500
O309        O  0.83648940  0.97906296  0.04006464    -0.74600
O310        O  0.78212475  0.92298118  0.03626068    -0.74600
O311        O  0.78225303  0.92409452  0.46907202    -0.74600
O312        O  0.83273683  0.98375472  0.47053256    -0.74500
O313        O  0.83635326  0.92865197  0.46978447    -0.74500
O314        O  0.77820476  0.98024732  0.47074947    -0.74600
Ni315      Ni  0.80914406  0.95126262  0.04123625     1.25400
Ni316      Ni  0.80722644  0.95429126  0.46741713     1.25400
C317        C  0.77308749  0.98843556  0.00315508     0.87700
C318        C  0.84706223  0.91568890  0.00195042     0.87600
C319        C  0.84473833  0.98930860  0.00402341     0.87700
C320        C  0.77591677  0.91192950  0.99954184     0.87800
C321        C  0.91439358  0.85981493  0.00307134    -0.00200
C322        C  0.89272761  0.86187472  0.47317677    -0.12100
C323        C  0.87024427  0.87946821  0.47250145     0.02000
C324        C  0.86921665  0.89539057  0.00223178    -0.00300
C325        C  0.88749848  0.89564252  0.03734001    -0.12000
C326        C  0.91015792  0.87838427  0.03784784     0.01900
H327        H  0.89542434  0.84729627  0.44680405     0.14900
H328        H  0.88469615  0.91016930  0.06376535     0.14900
C329        C  0.92935701  0.88141273  0.07328969     0.36500
C330        C  0.85073285  0.87662105  0.43747942     0.36400
N331        N  0.94475583  0.88401755  0.10160271    -0.43800
N332        N  0.83504087  0.87419419  0.40954448    -0.43800
C333        C  0.86405319  0.01236767  0.00466842    -0.00200
C334        C  0.88224757  0.01493776  0.03979084    -0.12100
C335        C  0.90039190  0.03698420  0.04230989     0.02000
C336        C  0.90071429  0.05664150  0.00876929    -0.00300
C337        C  0.87937939  0.05778351  0.47836500    -0.12000
C338        C  0.85977054  0.03713048  0.47738601     0.01900
H339        H  0.88234750  0.99963824  0.06531681     0.14900
H340        H  0.87787899  0.07457732  0.45544444     0.14900
C341        C  0.83725738  0.03973599  0.44723636     0.36500
C342        C  0.91875814  0.03848013  0.07901622     0.36400
N343        N  0.81909658  0.04208101  0.42341274    -0.43800
N344        N  0.93335964  0.03970942  0.10859311    -0.43800
C345        C  0.01679668  0.06872100  0.00136714    -0.00200
C346        C  0.02306862  0.05504489  0.04031441    -0.12100
C347        C  0.04466888  0.03656828  0.04258103     0.02000
C348        C  0.06022305  0.03087001  0.00479249    -0.00300
C349        C  0.04199014  0.03069583  0.46629939    -0.12000
C350        C  0.02047885  0.04932738  0.46432525     0.01900
H351        H  0.01088870  0.05856738  0.06936298     0.14900
H352        H  0.04411525  0.01554737  0.44061779     0.14900
C353        C  0.00160899  0.04721759  0.42829426     0.36500
C354        C  0.04997773  0.02388362  0.08418392     0.36400
N355        N  0.98650050  0.04550304  0.39942526    -0.43800
N356        N  0.05421812  0.01406427  0.11776780    -0.43800
C357        C  0.03116926  0.86943591  0.99762217    -0.00200
C358        C  0.03364746  0.88536153  0.03547502    -0.12100
C359        C  0.05163520  0.90743339  0.03736544     0.02000
C360        C  0.06820660  0.91369550  0.00090921    -0.00300
C361        C  0.06813393  0.89486104  0.47073473    -0.12000
C362        C  0.04933581  0.87332685  0.47001609     0.01900
H363        H  0.02092821  0.88100210  0.06362019     0.14900
H364        H  0.08363346  0.89610786  0.44547656     0.14900
C365        C  0.05149299  0.85331493  0.43547207     0.36500
C366        C  0.05154549  0.92381126  0.07663235     0.36400
N367        N  0.05316230  0.83741468  0.40759314    -0.43800
N368        N  0.05130675  0.93692867  0.10808278    -0.43800
C369        C  0.05288834  0.37372023  0.33340709    -0.00200
C370        C  0.02852626  0.38794238  0.34299720    -0.12100
C371        C  0.02770472  0.40884580  0.37461471     0.02000
C372        C  0.05170997  0.41601409  0.39783485    -0.00300
C373        C  0.07592949  0.40169278  0.38827346    -0.12000
C374        C  0.07678238  0.38091080  0.35683632     0.01900
H375        H  0.00994725  0.38292409  0.32544418     0.14900
H376        H  0.09455551  0.40651968  0.40583494     0.14900
C377        C  0.10260779  0.36719077  0.35033718     0.36500
C378        C  0.00202992  0.42276994  0.38158670     0.36400
N379        N  0.12339469  0.35632911  0.34533804    -0.43800
N380        N  0.98138559  0.43385266  0.38692251    -0.43800
C381        C  0.05436157  0.37151860  0.14964090    -0.00200
C382        C  0.07596995  0.37201134  0.11950441    -0.12100
C383        C  0.07753157  0.39240611  0.08778291     0.02000
C384        C  0.05743123  0.41313390  0.08662233    -0.00300
C385        C  0.03582272  0.41254512  0.11665719    -0.12000
C386        C  0.03406996  0.39204138  0.14796716     0.01900
H387        H  0.09139322  0.35608857  0.12016192     0.14900
H388        H  0.02036988  0.42844565  0.11611918     0.14900
C389        C  0.01170862  0.39328364  0.17875366     0.36500
C390        C  0.09912116  0.39067151  0.05568851     0.36400
N391        N  0.99373851  0.39432143  0.20329055    -0.43800
N392        N  0.11632494  0.38907868  0.02985875    -0.43800
C393        C  0.04323070  0.22667257  0.41384589    -0.00200
C394        C  0.02499103  0.22401169  0.37845153    -0.12100
C395        C  0.02760618  0.24000424  0.34125124     0.02000
C396        C  0.04921003  0.25890779  0.33800511    -0.00300
C397        C  0.06886537  0.26014154  0.37110779    -0.12000
C398        C  0.06624203  0.24411727  0.40858031     0.01900
H399        H  0.00892714  0.20895016  0.37808788     0.14900
H400        H  0.08596309  0.27419467  0.36825780     0.14900
C401        C  0.08769578  0.24583732  0.44079373     0.36500
C402        C  0.00821092  0.23588545  0.30627797     0.36400
N403        N  0.10487584  0.24709420  0.46661592    -0.43800
N404        N  0.99267413  0.23256675  0.27834309    -0.43800
C405        C  0.04476083  0.21831228  0.07683658    -0.00200
C406        C  0.07073770  0.22594704  0.09189571    -0.12100
C407        C  0.07376873  0.24319911  0.12829737     0.02000
C408        C  0.05027273  0.25383013  0.14969169    -0.00300
C409        C  0.02436668  0.24449756  0.13590729    -0.12000
C410        C  0.02150510  0.22694371  0.10002430     0.01900
H411        H  0.08869866  0.21935307  0.07392852     0.14900
H412        H  0.00602589  0.25167573  0.15217277     0.14900
C413        C  0.99436389  0.21936377  0.08596620     0.36500
C414        C  0.10122757  0.25001254  0.14177388     0.36400
N415        N  0.97259777  0.21327333  0.07477961    -0.43800
N416        N  0.12332718  0.25516935  0.15250875    -0.43800
C417        C  0.06169836  0.53088799  0.09524582    -0.00200
C418        C  0.08633516  0.53468526  0.11814827    -0.12100
C419        C  0.08889420  0.55460726  0.15101668     0.02000
C420        C  0.06634457  0.57145262  0.16210118    -0.00300
C421        C  0.04166353  0.56747030  0.13939028    -0.12000
C422        C  0.03919419  0.54777811  0.10629251     0.01900
H423        H  0.10385071  0.52197527  0.11042089     0.14900
H424        H  0.02415453  0.58027851  0.14674403     0.14900
C425        C  0.01355000  0.54646824  0.08317430     0.36500
C426        C  0.11497502  0.55696215  0.17267433     0.36400
N427        N  0.99299029  0.54570031  0.06462275    -0.43800
N428        N  0.13597216  0.55875197  0.18979895    -0.43800
C429        C  0.06159346  0.57951586  0.34817069    -0.00200
C430        C  0.03643524  0.56614558  0.35442234    -0.12100
C431        C  0.03391770  0.54446665  0.38387743     0.02000
C432        C  0.05705967  0.53560175  0.40758987    -0.00300
C433        C  0.08183334  0.54979324  0.40267835    -0.12000
C434        C  0.08426658  0.57164247  0.37385521     0.01900
H435        H  0.01877293  0.57208420  0.33535002     0.14900
H436        H  0.09954488  0.54391938  0.42170262     0.14900
C437        C  0.11030100  0.58565303  0.37215829     0.36500
C438        C  0.00753627  0.53138325  0.38791537     0.36400
N439        N  0.13117369  0.59682572  0.37097433    -0.43800
N440        N  0.98637132  0.52096948  0.39131283    -0.43800
C441        C  0.08290478  0.71355531  0.07067262    -0.00200
C442        C  0.10018285  0.71877277  0.10652555    -0.12100
C443        C  0.09827332  0.70323815  0.14456366     0.02000
C444        C  0.07852368  0.68235360  0.14757165    -0.00300
C445        C  0.06255501  0.67584073  0.11135144    -0.12000
C446        C  0.06500721  0.69061587  0.07284253     0.01900
H447        H  0.11472978  0.73532385  0.10636479     0.14900
H448        H  0.04819079  0.65892140  0.11306093     0.14900
C449        C  0.04794205  0.68230154  0.03668065     0.36500
C450        C  0.11602835  0.70994144  0.18065470     0.36400
N451        N  0.03442482  0.67553571  0.00765161    -0.43800
N452        N  0.13037458  0.71526320  0.20941876    -0.43800
C453        C  0.07434713  0.72982678  0.41327031    -0.00200
C454        C  0.04945511  0.72617638  0.39149712    -0.12100
C455        C  0.04773254  0.70939612  0.35426439     0.02000
C456        C  0.07137821  0.69558009  0.33852544    -0.00300
C457        C  0.09666836  0.70164504  0.35825108    -0.12000
C458        C  0.09827361  0.71850777  0.39512305     0.01900
H459        H  0.03100338  0.73502318  0.40521641     0.14900
H460        H  0.11525627  0.69221032  0.34618645     0.14900
C461        C  0.12464171  0.72314122  0.41495195     0.36500
C462        C  0.02123488  0.70625833  0.33416840     0.36400
N463        N  0.14881670  0.73411660  0.91520265    -0.43800
N464        N  0.99991657  0.70400926  0.31820962    -0.43800
C465        C  0.39626590  0.07873058  0.10021688    -0.00200
C466        C  0.37567489  0.05868323  0.10114702    -0.12100
C467        C  0.35483816  0.05926551  0.13248022     0.02000
C468        C  0.35437640  0.08012309  0.16454351    -0.00300
C469        C  0.37466940  0.10049836  0.16328825    -0.12000
C470        C  0.39551430  0.09997307  0.13169257     0.01900
H471        H  0.37557799  0.04258295  0.07674554     0.14900
H472        H  0.37462566  0.11658360  0.18771135     0.14900
C473        C  0.41640376  0.12083464  0.13373024     0.36500
C474        C  0.33361588  0.03875063  0.12958787     0.36400
N475        N  0.43309734  0.13759897  0.13570099    -0.43800
N476        N  0.31662451  0.02232602  0.12693261    -0.43800
C477        C  0.39525741  0.07613217  0.41386314    -0.00200
C478        C  0.39550400  0.09765510  0.38366960    -0.12100
C479        C  0.37520612  0.09968099  0.35173698     0.02000
C480        C  0.35391935  0.08008945  0.35022896    -0.00300
C481        C  0.35345211  0.05890430  0.38083385    -0.12000
C482        C  0.37374250  0.05678102  0.41252449     0.01900
H483        H  0.41202839  0.11248246  0.38419441     0.14900
H484        H  0.33700057  0.04398994  0.38020092     0.14900
C485        C  0.37142951  0.03491506  0.44388886     0.36500
C486        C  0.37767461  0.12104342  0.31950777     0.36400
N487        N  0.38939013  0.00409015  0.93106314    -0.43800
N488        N  0.37975183  0.13803946  0.29352521    -0.43800
C489        C  0.12199546  0.10588704  0.00549193    -0.00200
C490        C  0.11194449  0.11342264  0.46859830    -0.12100
C491        C  0.08976950  0.13128869  0.46286915     0.02000
C492        C  0.07902823  0.14455976  0.99313209    -0.00300
C493        C  0.08610330  0.13563232  0.03505049    -0.12000
C494        C  0.10642272  0.11575724  0.04135593     0.01900
H495        H  0.12047161  0.10345080  0.44015888     0.14900
H496        H  0.07622207  0.14447247  0.06335453     0.14900
C497        C  0.10997886  0.10523593  0.08489825     0.36500
C498        C  0.07747664  0.13246100  0.42016193     0.36400
N499        N  0.11261301  0.09674534  0.11980078    -0.43800
N500        N  0.06760681  0.13325415  0.38594375    -0.43800
C501        C  0.20869025  0.08352927  0.08653124    -0.00200
C502        C  0.20103159  0.06844235  0.12388963    -0.12100
C503        C  0.21763817  0.06758746  0.16067037     0.02000
C504        C  0.24135407  0.08375363  0.16195798    -0.00300
C505        C  0.24702974  0.10176493  0.12773293    -0.12000
C506        C  0.23078084  0.10216390  0.09041344     0.01900
H507        H  0.18240090  0.05639696  0.12393723     0.14900
H508        H  0.26457632  0.11532293  0.12986690     0.14900
C509        C  0.23651432  0.12316035  0.05877618     0.36500
C510        C  0.20970543  0.05026937  0.19666146     0.36400
N511        N  0.24143057  0.14018769  0.03382858    -0.43800
N512        N  0.20327578  0.03632806  0.22533764    -0.43800
C513        C  0.19878506  0.08232175  0.41986640    -0.00200
C514        C  0.20388253  0.05785214  0.39759531    -0.12100
C515        C  0.22168723  0.05718079  0.36169722     0.02000
C516        C  0.23513656  0.08149850  0.34787957    -0.00300
C517        C  0.22763941  0.10636961  0.36779324    -0.12000
C518        C  0.20963850  0.10691364  0.40336295     0.01900
H519        H  0.19540629  0.03890203  0.41009745     0.14900
H520        H  0.23673108  0.12540519  0.35691015     0.14900
C521        C  0.20324869  0.13285101  0.42354441     0.36500
C522        C  0.22612751  0.03102283  0.34087846     0.36400
N523        N  0.19792273  0.15363676  0.43955173    -0.43800
N524        N  0.22950025  0.00999475  0.32430330    -0.43800
C525        C  0.51295416  0.06435568  0.40864701    -0.00200
C526        C  0.51435971  0.04051612  0.38293499    -0.12100
C527        C  0.53363307  0.03773287  0.34912316     0.02000
C528        C  0.55254655  0.05907807  0.34032987    -0.00300
C529        C  0.55110439  0.08290244  0.36603333    -0.12000
C530        C  0.53181556  0.08570613  0.39974875     0.01900
H531        H  0.50000216  0.02399136  0.38876819     0.14900
H532        H  0.56548198  0.09942309  0.36030816     0.14900
C533        C  0.53263798  0.11052992  0.42532862     0.36500
C534        C  0.53275078  0.01297343  0.32337437     0.36400
N535        N  0.53343071  0.13046361  0.44572902    -0.43800
N536        N  0.53184455  0.99310184  0.30282590    -0.43800
C537        C  0.51237978  0.06620387  0.09637906    -0.00200
C538        C  0.53466933  0.08424640  0.09435081    -0.12100
C539        C  0.55638828  0.08192832  0.12355248     0.02000
C540        C  0.55567698  0.06146424  0.15586001    -0.00300
C541        C  0.53333289  0.04354104  0.15802304    -0.12000
C542        C  0.51172132  0.04572142  0.12874815     0.01900
H543        H  0.53549588  0.09971306  0.06910088     0.14900
H544        H  0.53250289  0.02804520  0.18324437     0.14900
C545        C  0.48886576  0.02720559  0.13376845     0.36500
C546        C  0.57965909  0.09984390  0.11816589     0.36400
N547        N  0.47066588  0.01228195  0.13803856    -0.43800
N548        N  0.59834998  0.11410554  0.11358408    -0.43800
C549        C  0.69952221  0.04323066  0.42166840    -0.00200
C550        C  0.69384233  0.01993946  0.39582304    -0.12100
C551        C  0.67773891  0.02146945  0.35852090     0.02000
C552        C  0.66569916  0.04655603  0.34676085    -0.00300
C553        C  0.67045455  0.06968348  0.37288675    -0.12000
C554        C  0.68687788  0.06825099  0.40999385     0.01900
H555        H  0.70111139  0.99990569  0.40421486     0.14900
H556        H  0.66086686  0.08901220  0.36484372     0.14900
C557        C  0.68994338  0.09288763  0.43566912     0.36500
C558        C  0.67440488  0.99679955  0.33291298     0.36400
N559        N  0.69229110  0.11274268  0.45594639    -0.43800
N560        N  0.67184662  0.97701482  0.31250680    -0.43800
C561        C  0.67226675  0.04768801  0.15634717    -0.00200
C562        C  0.68054570  0.07142211  0.13389094    -0.12100
C563        C  0.69832836  0.06997294  0.09790544     0.02000
C564        C  0.70839757  0.04448338  0.08350155    -0.00300
C565        C  0.70167767  0.02097949  0.10723990    -0.12000
C566        C  0.68400367  0.02231250  0.14343804     0.01900
H567        H  0.67235856  0.09116337  0.14336645     0.14900
H568        H  0.70930332  0.00129844  0.09626583     0.14900
C569        C  0.67818328  0.99713555  0.16613902     0.36500
C570        C  0.70553783  0.09488516  0.07547304     0.36400
N571        N  0.67360676  0.97692794  0.18432719    -0.43800
N572        N  0.71151335  0.11486612  0.05769404    -0.43800
C573        C  0.37656439  0.86552448  0.33222592    -0.00200
C574        C  0.37810393  0.84180332  0.35789738    -0.12100
C575        C  0.39817764  0.83877841  0.39020354     0.02000
C576        C  0.41762605  0.85982111  0.39762990    -0.00300
C577        C  0.41662332  0.88317822  0.37099845    -0.12000
C578        C  0.39663321  0.88611143  0.33848265     0.01900
H579        H  0.36303559  0.82572208  0.35360402     0.14900
H580        H  0.43164278  0.89929073  0.37542616     0.14900
C581        C  0.39782073  0.91018232  0.31136474     0.36500
C582        C  0.39733405  0.81428422  0.41635552     0.36400
N583        N  0.39888659  0.92942897  0.28954854    -0.43800
N584        N  0.39654073  0.79462975  0.43725447    -0.43800
C585        C  0.36742524  0.86818146  0.14841951    -0.00200
C586        C  0.38405805  0.89112012  0.14082602    -0.12100
C587        C  0.40529580  0.89024451  0.11059368     0.02000
C588        C  0.41027231  0.86585533  0.08700261    -0.00300
C589        C  0.39286479  0.84331305  0.09313671    -0.12000
C590        C  0.37154879  0.84423260  0.12333581     0.01900
H591        H  0.38107739  0.90973630  0.15955252     0.14900
H592        H  0.39595867  0.82471868  0.07440067     0.14900
C593        C  0.35437757  0.82028904  0.12738314     0.36500
C594        C  0.42203986  0.91446898  0.10613766     0.36400
N595        N  0.34070653  0.80104163  0.13048509    -0.43800
N596        N  0.43529954  0.93398466  0.10277111    -0.43800
C597        C  0.10774821  0.80461669  0.99692058    -0.00200
C598        C  0.11675470  0.81723554  0.03584249    -0.12100
C599        C  0.13625296  0.83839193  0.03586964     0.02000
C600        C  0.14610765  0.84902339  0.99602178    -0.00300
C601        C  0.13416909  0.83765709  0.46088185    -0.12000
C602        C  0.11621260  0.81515112  0.46119208     0.01900
H603        H  0.10966196  0.80951752  0.06695744     0.14900
H604        H  0.14034141  0.84577434  0.42957047     0.14900
C605        C  0.10966496  0.80239185  0.42004234     0.36500
C606        C  0.14715253  0.84677884  0.07746655     0.36400
N607        N  0.10468646  0.79222959  0.38687597    -0.43800
N608        N  0.15568236  0.85314632  0.11116862    -0.43800
C609        C  0.22804203  0.88453204  0.42093389    -0.00200
C610        C  0.22604196  0.90288684  0.38559583    -0.12100
C611        C  0.24253263  0.90026122  0.34885638     0.02000
C612        C  0.26130016  0.87860830  0.34613602    -0.00300
C613        C  0.26190804  0.85886153  0.37903302    -0.12000
C614        C  0.24522496  0.86134192  0.41584664     0.01900
H615        H  0.21091359  0.91885075  0.38473944     0.14900
H616        H  0.27567494  0.84155928  0.37618961     0.14900
C617        C  0.24566504  0.83924921  0.44696798     0.36500
C618        C  0.23866110  0.91926776  0.31335699     0.36400
N619        N  0.24602416  0.82132977  0.47150513    -0.43800
N620        N  0.23542641  0.93439959  0.28490411    -0.43800
C621        C  0.25290886  0.88075646  0.15746845    -0.00200
C622        C  0.24394892  0.85697057  0.13567499    -0.12100
C623        C  0.22706529  0.85847850  0.09882960     0.02000
C624        C  0.21864741  0.88409808  0.08283785    -0.00300
C625        C  0.22575325  0.90775381  0.10608520    -0.12000
C626        C  0.24247974  0.90636260  0.14326795     0.01900
H627        H  0.25103889  0.83706254  0.14621421     0.14900
H628        H  0.21930615  0.92752691  0.09389991     0.14900
C629        C  0.24882698  0.93169506  0.16537338     0.36500
C630        C  0.21920917  0.83344562  0.07711141     0.36400
N631        N  0.25372049  0.95208073  0.18300468    -0.43800
N632        N  0.21267222  0.81335594  0.06000100    -0.43800
C633        C  0.52836364  0.85434528  0.10183867    -0.00200
C634        C  0.53447436  0.82882906  0.12080610    -0.12100
C635        C  0.55513520  0.82596348  0.15237271     0.02000
C636        C  0.57092807  0.84890267  0.16532975    -0.00300
C637        C  0.56433165  0.87448899  0.14713581    -0.12000
C638        C  0.54333781  0.87748176  0.11637478     0.01900
H639        H  0.52301419  0.81083200  0.11103536     0.14900
H640        H  0.57570216  0.89255060  0.15687916     0.14900
C641        C  0.53783288  0.90476226  0.10074742     0.36500
C642        C  0.55901022  0.79928305  0.17139578     0.36400
N643        N  0.53338821  0.92669541  0.08857614    -0.43800
N644        N  0.56184476  0.77787382  0.18672662    -0.43800
C645        C  0.57719819  0.84802945  0.34728875    -0.00200
C646        C  0.57619887  0.87028831  0.37608582    -0.12100
C647        C  0.55577049  0.87212282  0.40772310     0.02000
C648        C  0.53548269  0.85152873  0.41035473    -0.00300
C649        C  0.53683363  0.82897496  0.38211353    -0.12000
C650        C  0.55739337  0.82701912  0.35071772     0.01900
H651        H  0.59161888  0.88622558  0.37416505     0.14900
H652        H  0.52135929  0.81308433  0.38380582     0.14900
C653        C  0.55679412  0.80380586  0.32144458     0.36500
C654        C  0.55683987  0.89489260  0.43778792     0.36400
N655        N  0.55628855  0.78517143  0.29810584    -0.43800
N656        N  0.55788574  0.91312183  0.46187549    -0.43800
C657        C  0.68460783  0.84391146  0.15219830    -0.00200
C658        C  0.71142559  0.85332715  0.15539854    -0.12100
C659        C  0.72830209  0.85373063  0.11877916     0.02000
C660        C  0.71781652  0.84566544  0.07740346    -0.00300
C661        C  0.69123848  0.83454844  0.07549454    -0.12000
C662        C  0.67466513  0.83371584  0.11242942     0.01900
H663        H  0.71913221  0.86046770  0.18656798     0.14900
H664        H  0.68273048  0.82670326  0.04563933     0.14900
C665        C  0.64700133  0.82355650  0.10825108     0.36500
C666        C  0.75606251  0.86333031  0.12460592     0.36400
N667        N  0.62484097  0.81549769  0.10484314    -0.43800
N668        N  0.77826116  0.87106409  0.12915097    -0.43800
C669        C  0.72741300  0.84855855  0.41922034    -0.00200
C670        C  0.72471840  0.87189827  0.39329195    -0.12100
C671        C  0.70837881  0.87152412  0.35560721     0.02000
C672        C  0.69410250  0.84730011  0.34330654    -0.00300
C673        C  0.69901526  0.82336069  0.36739579    -0.12000
C674        C  0.71541240  0.82383520  0.40488714     0.01900
H675        H  0.73404035  0.89092736  0.40392987     0.14900
H676        H  0.68900359  0.80440056  0.35824302     0.14900
C677        C  0.71907232  0.79881005  0.42907115     0.36500
C678        C  0.70634924  0.89658384  0.33104991     0.36400
N679        N  0.72217489  0.77883779  0.44858363    -0.43800
N680        N  0.70488967  0.91673089  0.31148464    -0.43800
C681        C  0.85529444  0.40339290  0.10654816    -0.00200
C682        C  0.87953147  0.39105960  0.12123657    -0.12100
C683        C  0.87925658  0.37016073  0.15241254     0.02000
C684        C  0.85409769  0.36062156  0.16991679    -0.00300
C685        C  0.82985677  0.37336558  0.15596817    -0.12000
C686        C  0.83018874  0.39451371  0.12501291     0.01900
H687        H  0.89906217  0.39760474  0.10807808     0.14900
H688        H  0.81037226  0.36682958  0.16929758     0.14900
C689        C  0.80431177  0.40661447  0.11329266     0.36500
C690        C  0.90539976  0.35919164  0.16546602     0.36400
N691        N  0.78356077  0.41634096  0.10403389    -0.43800
N692        N  0.92641203  0.35054038  0.17586782    -0.43800
C693        C  0.85564691  0.35924422  0.35206698    -0.00200
C694        C  0.83646984  0.35920147  0.38610462    -0.12100
C695        C  0.83724032  0.37924447  0.41852892     0.02000
C696        C  0.85729897  0.39995145  0.41663082    -0.00300
C697        C  0.87643209  0.40002686  0.38254522    -0.12000
C698        C  0.87575250  0.37993345  0.35023768     0.01900
H699        H  0.82119960  0.34311191  0.38786706     0.14900
H700        H  0.89175832  0.41606787  0.38085073     0.14900
C701        C  0.89517859  0.38172651  0.31481424     0.36500
C702        C  0.81822954  0.37721193  0.45445711     0.36400
N703        N  0.91072853  0.38327367  0.28645015    -0.43800
N704        N  0.80310563  0.37546005  0.48336187    -0.43800
C705        C  0.81890758  0.12766664  0.00645395    -0.00200
C706        C  0.82536272  0.10205327  0.02460363    -0.12100
C707        C  0.80622358  0.08031364  0.02459846     0.02000
C708        C  0.78020650  0.08376221  0.00502640    -0.00300
C709        C  0.77586450  0.11046696  0.47925008    -0.12000
C710        C  0.79538651  0.13145950  0.47950298     0.01900
H711        H  0.84503666  0.09936046  0.04028535     0.14900
H712        H  0.75686279  0.11435978  0.46235297     0.14900
C713        C  0.78917738  0.15636254  0.45651600     0.36500
C714        C  0.81347180  0.05550651  0.04691223     0.36400
N715        N  0.78363131  0.17605115  0.43773172    -0.43800
N716        N  0.81914660  0.03607084  0.06629519    -0.43800
C717        C  0.84748633  0.20803412  0.09630013    -0.00200
C718        C  0.86530449  0.20416238  0.13180344    -0.12100
C719        C  0.86473124  0.22146548  0.16778028     0.02000
C720        C  0.84522392  0.24255022  0.16984938    -0.00300
C721        C  0.82448724  0.24357824  0.13831904    -0.12000
C722        C  0.82508270  0.22603018  0.10215981     0.01900
H723        H  0.87981834  0.18752342  0.13219732     0.14900
H724        H  0.80829259  0.25861448  0.14117309     0.14900
C725        C  0.80230625  0.22658460  0.07226616     0.36500
C726        C  0.88419825  0.21675373  0.20235877     0.36400
N727        N  0.78396511  0.22678289  0.04848297    -0.43800
N728        N  0.89981367  0.21290987  0.22995660    -0.43800
C729        C  0.84888838  0.24415423  0.35781561    -0.00200
C730        C  0.87276666  0.22909381  0.36702142    -0.12100
C731        C  0.87444927  0.21191687  0.40360912     0.02000
C732        C  0.85161535  0.20867842  0.43127490    -0.00300
C733        C  0.82774420  0.22348265  0.42195435    -0.12000
C734        C  0.82615001  0.24105566  0.38603201     0.01900
H735        H  0.89071730  0.23161161  0.34661760     0.14900
H736        H  0.81063402  0.22246593  0.44440148     0.14900
C737        C  0.80163066  0.25719700  0.38139999     0.36500
C738        C  0.90079711  0.20069272  0.41461600     0.36400
N739        N  0.78205502  0.27028896  0.37800630    -0.43800
N740        N  0.92013398  0.18940133  0.92129005    -0.43800
C741        C  0.87097389  0.55719677  0.34555713    -0.00200
C742        C  0.84562638  0.55119549  0.36524761    -0.12100
C743        C  0.84314010  0.53157760  0.39849672     0.02000
C744        C  0.86637506  0.51670752  0.41274678    -0.00300
C745        C  0.89172066  0.52277202  0.39316898    -0.12000
C746        C  0.89428533  0.54270104  0.36044601     0.01900
H747        H  0.82750993  0.56226171  0.35521194     0.14900
H748        H  0.90990394  0.51194645  0.40356666     0.14900
C749        C  0.92135840  0.54784117  0.34348875     0.36500
C750        C  0.81643549  0.52788044  0.41779351     0.36400
N751        N  0.94312507  0.55198117  0.33016612    -0.43800
N752        N  0.79499487  0.52512795  0.43322317    -0.43800
C753        C  0.86541046  0.52134666  0.09416220    -0.00200
C754        C  0.84199977  0.52819422  0.11830675    -0.12100
C755        C  0.84276372  0.54853947  0.15033524     0.02000
C756        C  0.86751425  0.56266367  0.15884729    -0.00300
C757        C  0.89071999  0.55636664  0.13372199    -0.12000
C758        C  0.88986726  0.53614242  0.10148715     0.01900
H759        H  0.82304399  0.51714005  0.11294896     0.14900
H760        H  0.90970873  0.56735617  0.13910306     0.14900
C761        C  0.91425514  0.53161436  0.07587169     0.36500
C762        C  0.81793788  0.55356552  0.17462660     0.36400
N763        N  0.93367594  0.52792073  0.05509974    -0.43800
N764        N  0.79795228  0.55748722  0.19389579    -0.43800
C765        C  0.80583934  0.82533415  0.99954053    -0.00200
C766        C  0.81937283  0.81854170  0.03864421    -0.12100
C767        C  0.84068938  0.79931489  0.03975429     0.02000
C768        C  0.85049002  0.78759157  0.00060534    -0.00300
C769        C  0.83537119  0.79607704  0.46874872    -0.12000
C770        C  0.81313705  0.81422151  0.46867061     0.01900
H771        H  0.81202549  0.82692632  0.06923807     0.14900
H772        H  0.84239274  0.78818776  0.43767841     0.14900
C773        C  0.79861798  0.81793015  0.42822868     0.36500
C774        C  0.85000115  0.79052565  0.08198292     0.36400
N775        N  0.78695137  0.82037412  0.39569928    -0.43800
N776        N  0.85711077  0.78371468  0.11622153    -0.43800
C777        C  0.88087214  0.66882976  0.35662314    -0.00200
C778        C  0.88247921  0.69717053  0.35219834    -0.12100
C779        C  0.88385727  0.71400351  0.38903252     0.02000
C780        C  0.88298385  0.70239436  0.43156254    -0.00300
C781        C  0.88157042  0.67371790  0.43513934    -0.12000
C782        C  0.88064755  0.65705624  0.39829091     0.01900
H783        H  0.88285354  0.70613201  0.31989436     0.14900
H784        H  0.88187810  0.66360453  0.46622958     0.14900
C785        C  0.87998889  0.62780633  0.40445015     0.36500
C786        C  0.88670070  0.74311223  0.38202120     0.36400
N787        N  0.87968653  0.60449393  0.41069358    -0.43800
N788        N  0.88908134  0.76642045  0.37664146    -0.43800
C789        C  0.88362581  0.71522769  0.09222919    -0.00200
C790        C  0.85782906  0.70785848  0.10841514    -0.12100
C791        C  0.85502436  0.69003254  0.14402521     0.02000
C792        C  0.87856212  0.67892518  0.16452963    -0.00300
C793        C  0.90443494  0.68784150  0.14968610    -0.12000
C794        C  0.90707670  0.70564290  0.11393841     0.01900
H795        H  0.83970724  0.71466560  0.09123130     0.14900
H796        H  0.92283422  0.68001693  0.16481638     0.14900
C797        C  0.93409995  0.71223359  0.09804352     0.36500
C798        C  0.82760277  0.68240908  0.15659961     0.36400
N799        N  0.95571808  0.71941110  0.59064080    -0.43800
N800        N  0.80553948  0.67636231  0.16635808    -0.43800
C801        C  0.88598570  0.71993965  0.96775352     0.86400
C802        C  0.86602954  0.74388787  0.96658118    -0.53800
C803        C  0.86622798  0.76203421  0.50564236     0.09400
C804        C  0.89063267  0.75523150  0.53662078     0.20300
C805        C  0.91456462  0.73269470  0.96978706    -0.54500
C806        C  0.91579208  0.75345276  0.50609427     0.09500
C807        C  0.88208806  0.70744110  0.01320599    -0.54100
C808        C  0.88552694  0.72526904  0.55106190     0.10000
H809        H  0.85026224  0.74513391  0.94180802     0.14500
H810        H  0.89379189  0.76983305  0.56377918     0.00300
H811        H  0.93059431  0.72823964  0.94626334     0.14800
H812        H  0.87855227  0.68606470  0.52353134     0.14600
O813        O  0.89762020  0.58475444  0.79634708    -0.74500
O814        O  0.90071335  0.64381662  0.71366723    -0.74500
O815        O  0.90030369  0.63991407  0.80171147    -0.74600
O816        O  0.89803498  0.58848322  0.70823437    -0.74600
O817        O  0.85255503  0.59114588  0.70787115    -0.74600
O818        O  0.85462067  0.64116396  0.80255377    -0.74500
O819        O  0.85534066  0.64617533  0.71475890    -0.74500
O820        O  0.85218347  0.58645207  0.79546650    -0.74600
Ni821      Ni  0.90083178  0.61417994  0.75495754     1.25400
Ni822      Ni  0.85209035  0.61634834  0.75507392     1.25400
C823        C  0.87439251  0.57592009  0.80988704     0.87700
C824        C  0.87841775  0.65479046  0.70033644     0.87600
C825        C  0.87775805  0.64845425  0.81787859     0.87700
C826        C  0.87482152  0.58134077  0.69264420     0.87800
C827        C  0.85277044  0.19246167  0.55374465     0.86400
C828        C  0.83356880  0.16794045  0.54900407    -0.53800
C829        C  0.83750907  0.15285372  0.51211520     0.09400
C830        C  0.85936328  0.16325279  0.98288674     0.20300
C831        C  0.88170780  0.18076122  0.54911796    -0.54500
C832        C  0.88595719  0.16559070  0.51269835     0.09500
C833        C  0.84951678  0.20909581  0.51174499    -0.54100
C834        C  0.85103052  0.19351078  0.97448594     0.10000
H835        H  0.81801778  0.16288968  0.57301253     0.14500
H836        H  0.86231189  0.15086544  0.95286845     0.00300
H837        H  0.89813194  0.18447718  0.57209176     0.14800
H838        H  0.84582628  0.23098156  0.51135363     0.14600
O839        O  0.87377058  0.27071890  0.80666086    -0.74500
O840        O  0.87950067  0.32541451  0.71715398    -0.74500
O841        O  0.87918151  0.32574913  0.80571216    -0.74600
O842        O  0.87369204  0.27019059  0.71845758    -0.74600
O843        O  0.82831836  0.27487044  0.71809038    -0.74600
O844        O  0.83384961  0.32969158  0.80532035    -0.74500
O845        O  0.83427666  0.32981247  0.71712534    -0.74500
O846        O  0.82848538  0.27486171  0.80637923    -0.74600
Ni847      Ni  0.87817576  0.29784987  0.76193201     1.25400
Ni848      Ni  0.82965563  0.30246952  0.76168434     1.25400
C849        C  0.85024953  0.26394388  0.82181804     0.89300
C850        C  0.85784581  0.33680925  0.70226495     0.87600
C851        C  0.85721011  0.33661786  0.82042086     0.87700
C852        C  0.85006111  0.26341561  0.70403014     0.87800
O853        O  0.84072470  0.48633235  0.96099008    -0.74500
O854        O  0.83942608  0.43294527  0.55347088    -0.74500
O855        O  0.84419893  0.48821950  0.55159114    -0.74600
O856        O  0.83616994  0.43137750  0.96770916    -0.74600
O857        O  0.88151470  0.42778745  0.96851307    -0.74600
O858        O  0.88953900  0.48405521  0.54935216    -0.74500
O859        O  0.88463710  0.42875696  0.55076014    -0.74500
O860        O  0.88603887  0.48269224  0.96213725    -0.74600
Ni861      Ni  0.83920935  0.46036105  0.50864413     1.25400
Ni862      Ni  0.88775506  0.45632866  0.50593823     1.25400
C863        C  0.86423143  0.49294837  0.94573121     0.87700
C864        C  0.86144501  0.42152633  0.56684492     0.87600
C865        C  0.86803107  0.49541019  0.56457549     0.87700
C866        C  0.85819248  0.42001169  0.95426231     0.87800
C867        C  0.73317512  0.85284402  0.54378765     0.86400
C868        C  0.75976995  0.83660823  0.54505794    -0.53800
C869        C  0.77736314  0.84146620  0.51138480     0.09400
C870        C  0.76676899  0.86120773  0.97026596     0.20300
C871        C  0.74156730  0.88290875  0.54003011    -0.54500
C872        C  0.75911654  0.88830177  0.50688211     0.09500
C873        C  0.72076737  0.84640711  0.49890383    -0.54100
C874        C  0.73841152  0.84952672  0.95706550     0.10000
H875        H  0.76381940  0.82168678  0.57039104     0.14500
H876        H  0.78030959  0.86640113  0.94249566     0.00300
H877        H  0.73505676  0.89860232  0.56293209     0.14800
H878        H  0.69979473  0.84017201  0.49342040     0.14600
O879        O  0.59958382  0.86717294  0.71215893    -0.74500
O880        O  0.65772542  0.86622619  0.79531048    -0.74500
O881        O  0.65461268  0.86548650  0.70804486    -0.74600
O882        O  0.60253163  0.86730494  0.80027687    -0.74600
O883        O  0.60149129  0.82171944  0.80071283    -0.74600
O884        O  0.65287823  0.81980525  0.70783792    -0.74500
O885        O  0.65710793  0.82074396  0.79578417    -0.74500
O886        O  0.59785004  0.82172820  0.71230217    -0.74600
Ni887      Ni  0.62860281  0.86813076  0.75400525     1.25400
Ni888      Ni  0.62725684  0.81933229  0.75431008     1.25400
C889        C  0.58931523  0.84480015  0.69766099     0.87700
C890        C  0.66755320  0.84353903  0.80875205     0.87600
C891        C  0.66202704  0.84231239  0.69268360     0.87700
C892        C  0.59336728  0.84474939  0.81562564     0.87800
C893        C  0.21085663  0.88859424  0.95869556     0.86400
C894        C  0.18797220  0.86714238  0.95861740    -0.53800
C895        C  0.16928442  0.86846560  0.49631012     0.09400
C896        C  0.17741595  0.89176380  0.52888087     0.20300
C897        C  0.19602920  0.91621576  0.96277209    -0.54500
C898        C  0.17847369  0.91790734  0.50058249     0.09500
C899        C  0.22493981  0.88541329  0.00299050    -0.54100
C900        C  0.20783622  0.88601727  0.54047486     0.10000
H901        H  0.18654089  0.85171959  0.93320051     0.14500
H902        H  0.16375571  0.89422297  0.55737435     0.00300
H903        H  0.19872407  0.93364452  0.94164328     0.14800
H904        H  0.24644982  0.88120089  0.50767041     0.14600
O905        O  0.29135024  0.89740179  0.70413120    -0.74500
O906        O  0.34917126  0.89110900  0.78796610    -0.74500
O907        O  0.34629120  0.89043142  0.70004056    -0.74600
O908        O  0.29448266  0.89780060  0.79221375    -0.74600
O909        O  0.28895832  0.85253805  0.79373993    -0.74600
O910        O  0.34040818  0.84527849  0.70075676    -0.74500
O911        O  0.34380256  0.84594758  0.78899201    -0.74500
O912        O  0.28523842  0.85236551  0.70509616    -0.74600
Ni913      Ni  0.32049063  0.89575224  0.74600457     1.25400
Ni914      Ni  0.31436448  0.84740083  0.74711531     1.25400
C915        C  0.27857947  0.87610244  0.69059744     0.87700
C916        C  0.35614773  0.86759394  0.80250222     0.87600
C917        C  0.35217936  0.86658514  0.68544789     0.87700
C918        C  0.28339906  0.87640043  0.80846309     0.87800
O919        O  0.49765729  0.83151790  0.54236947    -0.74500
O920        O  0.44497779  0.83632147  0.95734512    -0.74500
O921        O  0.49995014  0.83127803  0.96441322    -0.74600
O922        O  0.44247985  0.83587242  0.53693587    -0.74600
O923        O  0.44608026  0.88124604  0.53627852    -0.74600
O924        O  0.50432768  0.87663834  0.96210867    -0.74500
O925        O  0.44941393  0.88154289  0.95436190    -0.74500
O926        O  0.50109305  0.87684414  0.54219197    -0.74600
Ni927      Ni  0.47153310  0.83180302  0.49557845     1.25400
Ni928      Ni  0.47526341  0.88040262  0.49521742     1.25400
C929        C  0.50816759  0.85356846  0.55776623     0.87700
C930        C  0.43849321  0.85931291  0.94025958     0.87600
C931        C  0.51190578  0.85277558  0.95012788     0.87700
C932        C  0.43467190  0.85945504  0.55037040     0.87800
C933        C  0.72091031  0.03929002  0.96024031     0.86400
C934        C  0.74339276  0.06112850  0.96165307    -0.53800
C935        C  0.75791958  0.06347574  0.49699285     0.09400
C936        C  0.74977528  0.04078667  0.53058362     0.20300
C937        C  0.73679109  0.01252364  0.96515893    -0.54500
C938        C  0.75003426  0.01380335  0.50358803     0.09500
C939        C  0.70525459  0.04242980  0.00320061    -0.54100
C940        C  0.71913338  0.04608915  0.54048728     0.10000
H941        H  0.74619939  0.07559554  0.93523049     0.14500
H942        H  0.76211127  0.03999566  0.56065205     0.00300
H943        H  0.73723138  0.99609917  0.94146885     0.14800
H944        H  0.68109708  0.04965970  0.50594519     0.14600
O945        O  0.63777706  0.02890889  0.70677640    -0.74500
O946        O  0.58095832  0.03282373  0.79395219    -0.74500
O947        O  0.58247548  0.03403799  0.70581060    -0.74600
O948        O  0.63601121  0.02757571  0.79510755    -0.74600
O949        O  0.64055583  0.07286780  0.79743738    -0.74600
O950        O  0.58700288  0.07938012  0.70770309    -0.74500
O951        O  0.58544727  0.07804447  0.79584095    -0.74500
O952        O  0.64221241  0.07416377  0.70900342    -0.74600
Ni953      Ni  0.60919119  0.02922940  0.75030746     1.25400
Ni954      Ni  0.61398421  0.07771422  0.75255318     1.25400
C955        C  0.64941046  0.05088984  0.69329438     0.87700
C956        C  0.57371114  0.05613987  0.80938952     0.87600
C957        C  0.57580212  0.05779997  0.69210183     0.87700
C958        C  0.64703287  0.04906275  0.81125291     0.87800
C959        C  0.19370677  0.07888053  0.54383067     0.86400
C960        C  0.16803973  0.09648093  0.54591230    -0.53800
C961        C  0.14947276  0.09219884  0.51330823     0.09400
C962        C  0.16056480  0.06953347  0.97785683     0.20300
C963        C  0.18388393  0.04920644  0.53932135    -0.54500
C964        C  0.16611176  0.04464375  0.50643427     0.09500
C965        C  0.20612701  0.08476337  0.49899903    -0.54100
C966        C  0.18899491  0.08133892  0.96578691     0.10000
H967        H  0.16623745  0.11247420  0.57017411     0.14500
H968        H  0.14732736  0.06504926  0.94939096     0.00300
H969        H  0.19049895  0.03272349  0.56049049     0.14800
H970        H  0.22755513  0.08930477  0.49347439     0.14600
O971        O  0.32397213  0.05829192  0.71390370    -0.74500
O972        O  0.26783892  0.06104049  0.80026355    -0.74500
O973        O  0.26915002  0.06107901  0.71254974    -0.74600
O974        O  0.32304458  0.05919372  0.80179449    -0.74600
O975        O  0.32453027  0.10465922  0.80200448    -0.74600
O976        O  0.27163111  0.10668972  0.71184422    -0.74500
O977        O  0.26892683  0.10647147  0.80030745    -0.74500
O978        O  0.32660844  0.10372571  0.71355165    -0.74600
Ni979      Ni  0.29592379  0.05832987  0.75724676     1.25400
Ni980      Ni  0.29798874  0.10706076  0.75704911     1.25400
C981        C  0.33431198  0.08032276  0.69866715     0.87700
C982        C  0.25869111  0.08387929  0.81443285     0.87600
C983        C  0.26199763  0.08425621  0.69703987     0.87700
C984        C  0.33291862  0.08170102  0.81644940     0.87800
O985        O  0.48314100  0.09128710  0.96013830    -0.74500
O986        O  0.42980840  0.09533809  0.54815451    -0.74500
O987        O  0.48480912  0.08924871  0.54716573    -0.74600
O988        O  0.42808166  0.09709481  0.96271557    -0.74600
O989        O  0.42405063  0.05180627  0.96345770    -0.74600
O990        O  0.47971458  0.04396151  0.54664918    -0.74500
O991        O  0.42469176  0.05012201  0.54755310    -0.74500
O992        O  0.47886741  0.04605169  0.96144510    -0.74600
Ni993      Ni  0.45738205  0.09414215  0.50350241     1.25400
Ni994      Ni  0.45215929  0.04565898  0.50286539     1.25400
C995        C  0.48994740  0.06765427  0.94551046     0.87700
C996        C  0.41819118  0.07372560  0.56286191     0.87600
C997        C  0.49119392  0.06553828  0.56161343     0.87700
C998        C  0.41676865  0.07507662  0.94880478     0.87800
C999        C  0.07652293  0.73477434  0.53770360     0.86400
C1000       C  0.09584763  0.75967664  0.53685280    -0.53800
C1001       C  0.09067503  0.77809764  0.50429363     0.09400
C1002       C  0.06911770  0.76730138  0.96916470     0.20300
C1003       C  0.04801568  0.74752485  0.53929877    -0.54500
C1004       C  0.04227869  0.76463907  0.50597147     0.09500
C1005       C  0.07940696  0.72227369  0.49221525    -0.54100
C1006       C  0.07849666  0.73844791  0.95454962     0.10000
H1007       H  0.11237214  0.76301070  0.55954219     0.14500
H1008       H  0.06366481  0.78119368  0.94209273     0.00300
H1009       H  0.03337101  0.74324109  0.56510379     0.14800
H1010       H  0.08455967  0.70091856  0.48673700     0.14600
O1011       O  0.04999389  0.65972047  0.78881724    -0.74500
O1012       O  0.04739994  0.60112272  0.70567880    -0.74500
O1013       O  0.04528149  0.60451608  0.79350444    -0.74600
O1014       O  0.05229425  0.65574505  0.70071321    -0.74600
O1015       O  0.09775836  0.65280144  0.70447536    -0.74600
O1016       O  0.09066902  0.60077990  0.79562077    -0.74500
O1017       O  0.09284737  0.59804365  0.70748366    -0.74500
O1018       O  0.09521837  0.65608713  0.79262891    -0.74600
Ni1019     Ni  0.04713862  0.63047816  0.74719351     1.25400
Ni1020     Ni  0.09574886  0.62681923  0.75031958     1.25400
C1021       C  0.07287506  0.66760176  0.80484904     0.87700
C1022       C  0.06969420  0.59032421  0.69204824     0.87600
C1023       C  0.06694180  0.59361343  0.80902294     0.87700
C1024       C  0.07612859  0.66218470  0.68673112     0.87800
C1025       C  0.04012524  0.20896952  0.95322491     0.86400
C1026       C  0.06165587  0.18626686  0.95378379    -0.53800
C1027       C  0.05988887  0.17022168  0.49248125     0.09400
C1028       C  0.03632554  0.17827595  0.52413596     0.20300
C1029       C  0.01241043  0.19410804  0.95780213    -0.54500
C1030       C  0.01053732  0.17767752  0.49519026     0.09500
C1031       C  0.04327776  0.22363201  0.99711715    -0.54100
C1032       C  0.04052744  0.20907917  0.53423223     0.10000
H1033       H  0.07758544  0.18520730  0.92923326     0.14500
H1034       H  0.03469774  0.16514794  0.55347754     0.00300
H1035       H  0.99506225  0.19669633  0.93637165     0.14800
H1036       H  0.04399695  0.24718327  0.49968917     0.14600
O1037       O  0.02980052  0.34674369  0.78795750    -0.74500
O1038       O  0.02520143  0.29004211  0.70119176    -0.74500
O1039       O  0.02677392  0.29160715  0.78932524    -0.74600
O1040       O  0.02833323  0.34533328  0.69957811    -0.74600
O1041       O  0.07380271  0.34291736  0.69807465    -0.74600
O1042       O  0.07231232  0.28903025  0.78792576    -0.74500
O1043       O  0.07057923  0.28754343  0.69938999    -0.74500
O1044       O  0.07524920  0.34406910  0.78661682    -0.74600
Ni1045     Ni  0.02592553  0.31853302  0.74457053     1.25400
Ni1046     Ni  0.07460984  0.31580910  0.74285215     1.25400
C1047       C  0.05322931  0.35445141  0.80223473     0.87700
C1048       C  0.04713819  0.27931700  0.68582912     0.87600
C1049       C  0.04920853  0.28159618  0.80354050     0.87700
C1050       C  0.05135026  0.35288306  0.68373809     0.87800
O1051       O  0.08205380  0.49906445  0.53714535    -0.74500
O1052       O  0.07981384  0.44600756  0.95263912    -0.74500
O1053       O  0.08150801  0.50128756  0.95613994    -0.74600
O1054       O  0.07893676  0.44391602  0.53381435    -0.74600
O1055       O  0.03347196  0.44589033  0.53689295    -0.74600
O1056       O  0.03597500  0.50297608  0.95756820    -0.74500
O1057       O  0.03431866  0.44770189  0.95406656    -0.74500
O1058       O  0.03662402  0.50102542  0.54114839    -0.74600
Ni1059     Ni  0.08066509  0.47237500  0.49133894     1.25400
Ni1060     Ni  0.03202447  0.47463740  0.49505379     1.25400
C1061       C  0.06027795  0.50868692  0.55459419     0.87700
C1062       C  0.05654487  0.43797501  0.93815341     0.87600
C1063       C  0.05892098  0.51139713  0.94268201     0.87700
C1064       C  0.05615792  0.43569226  0.54972431     0.87800
O1065       O  0.14979637  0.94934709  0.53981726    -0.74500
O1066       O  0.09205908  0.00225067  0.53874350    -0.74500
O1067       O  0.09529476  0.94729384  0.53954254    -0.74600
O1068       O  0.14645735  0.00569792  0.53909486    -0.74600
O1069       O  0.14486008  0.00811923  0.96564504    -0.74600
O1070       O  0.09635492  0.94660459  0.96508867    -0.74500
O1071       O  0.09093428  0.00156396  0.96710404    -0.74500
O1072       O  0.15097736  0.95210599  0.96445205    -0.74600
Ni1073     Ni  0.12108080  0.97617883  0.54190954     1.25400
Ni1074     Ni  0.12094037  0.97704444  0.96291667     1.25400
C1075       C  0.15922549  0.94111749  0.50316304     0.87700
C1076       C  0.08210216  0.01022766  0.50235003     0.87600
C1077       C  0.08745495  0.93700784  0.50338004     0.87700
C1078       C  0.15200573  0.01806357  0.50339303     0.87800
O1079       O  0.98101128  0.14915674  0.53738735    -0.74500
O1080       O  0.92997887  0.08989667  0.54304826    -0.74500
O1081       O  0.98473968  0.09488168  0.53726014    -0.74600
O1082       O  0.92511767  0.14447072  0.54252787    -0.74600
O1083       O  0.91912311  0.14185639  0.96946061    -0.74600
O1084       O  0.98241684  0.09555506  0.96560796    -0.74500
O1085       O  0.92789983  0.08824587  0.97041919    -0.74500
O1086       O  0.97495896  0.14991891  0.96373818    -0.74600
Ni1087     Ni  0.95523902  0.11976552  0.54270442     1.25400
Ni1088     Ni  0.95103662  0.11903456  0.96464691     1.25400
C1089       C  0.98763127  0.15836614  0.49989014     0.87700
C1090       C  0.92068253  0.07956976  0.50766527     0.87600
C1091       C  0.99362004  0.08730652  0.49994632     0.87700
C1092       C  0.91170283  0.15028150  0.50788752     0.87800
O1093       O  0.94815097  0.78181456  0.54324899    -0.74500
O1094       O  0.00084870  0.83977857  0.54058112    -0.74500
O1095       O  0.94576247  0.83615729  0.54275210    -0.74600
O1096       O  0.00442590  0.78528411  0.54093226    -0.74600
O1097       O  0.00804666  0.78361791  0.96248152    -0.74600
O1098       O  0.94650269  0.83183324  0.96529597    -0.74500
O1099       O  0.00145071  0.83762175  0.96220874    -0.74500
O1100       O  0.95198480  0.77724650  0.96583903    -0.74600
Ni1101     Ni  0.97487720  0.81061516  0.54447968     1.25400
Ni1102     Ni  0.97689305  0.80737239  0.96128271     1.25400
C1103       C  0.93925438  0.77241254  0.50700397     0.87700
C1104       C  0.00878310  0.84941143  0.50388262     0.87600
C1105       C  0.93491865  0.84362292  0.50689189     0.87700
C1106       C  0.01604048  0.77928154  0.50468850     0.87800
O1107       O  0.77902983  0.98285564  0.54327638    -0.74500
O1108       O  0.83464183  0.92758182  0.54239630    -0.74500
O1109       O  0.83381173  0.98269633  0.54320432    -0.74600
O1110       O  0.77989602  0.92634222  0.54161985    -0.74600
O1111       O  0.78448934  0.92188701  0.96364538    -0.74600
O1112       O  0.83608922  0.98024649  0.96745103    -0.74500
O1113       O  0.83872730  0.92530903  0.96565443    -0.74500
O1114       O  0.78147760  0.97795032  0.96708682    -0.74600
Ni1115     Ni  0.80667749  0.95483418  0.54527639     1.25400
Ni1116     Ni  0.81006196  0.95145659  0.96338544     1.25400
C1117       C  0.77006141  0.99121970  0.50655898     0.87700
C1118       C  0.84465510  0.91913653  0.50616463     0.87600
C1119       C  0.84172100  0.99282649  0.50694427     0.87700
C1120       C  0.77399971  0.91448235  0.50546283     0.87800
C1121       C  0.91139657  0.86247897  0.50788914    -0.00200
C1122       C  0.89565771  0.85905035  0.96851078    -0.12100
C1123       C  0.87329784  0.87672301  0.96762766     0.02000
C1124       C  0.86658216  0.89858142  0.50661364    -0.00300
C1125       C  0.88467045  0.89856983  0.54191543    -0.12000
C1126       C  0.90683738  0.88071726  0.54305369     0.01900
H1127       H  0.89845848  0.84458731  0.94200234     0.14900
H1128       H  0.88184132  0.91302513  0.56843406     0.14900
C1129       C  0.92474952  0.88226991  0.58036440     0.36500
C1130       C  0.85494930  0.87511811  0.93089298     0.36400
N1131       N  0.93888969  0.88351200  0.61050686    -0.43800
N1132       N  0.84042846  0.87400364  0.90121118    -0.43800
C1133       C  0.86149954  0.01536489  0.50729805    -0.00200
C1134       C  0.88223584  0.01533568  0.53884069    -0.12100
C1135       C  0.90172414  0.03620760  0.54009643     0.02000
C1136       C  0.90050957  0.05743602  0.50918177    -0.00300
C1137       C  0.88220284  0.05426477  0.97408585    -0.12000
C1138       C  0.86373643  0.03263682  0.97198246     0.01900
H1139       H  0.88347806  0.99871860  0.56210412     0.14900
H1140       H  0.88176458  0.06973510  0.94880811     0.14900
C1141       C  0.84369611  0.03284606  0.93739814     0.36500
C1142       C  0.92322118  0.03472664  0.57221341     0.36400
N1143       N  0.82752849  0.03318724  0.90990615    -0.43800
N1144       N  0.94041189  0.03347207  0.59799898    -0.43800
C1145       C  0.01706798  0.06860334  0.49820290    -0.00200
C1146       C  0.03592328  0.06937888  0.53262165    -0.12100
C1147       C  0.05742054  0.05075745  0.53457584     0.02000
C1148       C  0.06022170  0.03079030  0.50158449    -0.00300
C1149       C  0.05457220  0.04526885  0.96624105    -0.12000
C1150       C  0.03331556  0.06423107  0.96429758     0.01900
H1151       H  0.03383118  0.08457876  0.55824343     0.14900
H1152       H  0.06695068  0.04189636  0.93736776     0.14900
C1153       C  0.02952467  0.07909327  0.92417462     0.36500
C1154       C  0.07647594  0.05299856  0.57031915     0.36400
N1155       N  0.02653011  0.09102459  0.89202826    -0.43800
N1156       N  0.09174542  0.05459869  0.59897680    -0.43800
C1157       C  0.02934870  0.87134914  0.50319324    -0.00200
C1158       C  0.02882163  0.89084383  0.53667049    -0.12100
C1159       C  0.04734555  0.91252634  0.53713928     0.02000
C1160       C  0.06734408  0.91459958  0.50395180    -0.00300
C1161       C  0.06595263  0.89760547  0.96307385    -0.12000
C1162       C  0.04755228  0.87574381  0.96095657     0.01900
H1163       H  0.01335418  0.88956559  0.56198413     0.14900
H1164       H  0.07865496  0.90204812  0.93495205     0.14900
C1165       C  0.04626015  0.86020134  0.92088939     0.36500
C1166       C  0.04432585  0.93298584  0.57088212     0.36400
N1167       N  0.04515670  0.84796720  0.88859130    -0.43800
N1168       N  0.04177906  0.94940362  0.59782453    -0.43800
C1169       C  0.05463210  0.37569597  0.83719001    -0.00200
C1170       C  0.03335024  0.39488088  0.84066514    -0.12100
C1171       C  0.03350822  0.41524264  0.87298379     0.02000
C1172       C  0.05543282  0.41690344  0.90293595    -0.00300
C1173       C  0.07668209  0.39765281  0.89960705    -0.12000
C1174       C  0.07632403  0.37703522  0.86763738     0.01900
H1175       H  0.01653465  0.39416900  0.81768831     0.14900
H1176       H  0.09335585  0.39823752  0.92286065     0.14900
C1177       C  0.09767731  0.35666600  0.86863033     0.36500
C1178       C  0.01119593  0.43455971  0.87368700     0.36400
N1179       N  0.11468236  0.34024246  0.86979138    -0.43800
N1180       N  0.99328176  0.45000218  0.87426193    -0.43800
C1181       C  0.05226050  0.37359655  0.64870168    -0.00200
C1182       C  0.07596182  0.38960648  0.64419220    -0.12100
C1183       C  0.07790561  0.40974707  0.61210578     0.02000
C1184       C  0.05573089  0.41418288  0.58349903    -0.00300
C1185       C  0.03211342  0.39803093  0.58778123    -0.12000
C1186       C  0.03023071  0.37778773  0.61969962     0.01900
H1187       H  0.09296530  0.38672109  0.66635461     0.14900
H1188       H  0.01508828  0.40096536  0.56567094     0.14900
C1189       C  0.00587525  0.36103327  0.62050243     0.36500
C1190       C  0.10252011  0.42609905  0.61063250     0.36400
N1191       N  0.98636559  0.34760254  0.62076690    -0.43800
N1192       N  0.12228430  0.43913827  0.60958934    -0.43800
C1193       C  0.04348052  0.22740477  0.91318379    -0.00200
C1194       C  0.02584389  0.22436124  0.87707380    -0.12100
C1195       C  0.02778332  0.24139032  0.84084316     0.02000
C1196       C  0.04822978  0.26158171  0.83916496    -0.00300
C1197       C  0.06746785  0.26326032  0.87280608    -0.12000
C1198       C  0.06550611  0.24629721  0.90936474     0.01900
H1199       H  0.01082145  0.20822605  0.87565558     0.14900
H1200       H  0.08371459  0.27836465  0.87105135     0.14900
C1201       C  0.08644257  0.24899617  0.94226565     0.36500
C1202       C  0.00913363  0.23701054  0.80497026     0.36400
N1203       N  0.10313255  0.25141647  0.96870129    -0.43800
N1204       N  0.99429681  0.23357422  0.77612297    -0.43800
C1205       C  0.04071382  0.22184061  0.57824859    -0.00200
C1206       C  0.06557633  0.22465587  0.60040573    -0.12100
C1207       C  0.06792199  0.24205014  0.63681260     0.02000
C1208       C  0.04514512  0.25775061  0.65101936    -0.00300
C1209       C  0.01982836  0.25338268  0.63017300    -0.12000
C1210       C  0.01747024  0.23555184  0.59441490     0.01900
H1211       H  0.08347833  0.21398816  0.58823584     0.14900
H1212       H  0.00186691  0.26451148  0.64091024     0.14900
C1213       C  0.99105986  0.23197472  0.57415602     0.36500
C1214       C  0.09398810  0.24323025  0.65872292     0.36400
N1215       N  0.96986610  0.22884386  0.55815409    -0.43800
N1216       N  0.11482448  0.24403453  0.67651020    -0.43800
C1217       C  0.06267509  0.52902470  0.59062593    -0.00200
C1218       C  0.08558408  0.54645815  0.59195018    -0.12100
C1219       C  0.08844847  0.56637695  0.62468482     0.02000
C1220       C  0.06833561  0.56888234  0.65760903    -0.00300
C1221       C  0.04559672  0.55128120  0.65652127    -0.12000
C1222       C  0.04264486  0.53149184  0.62368844     0.01900
H1223       H  0.10100125  0.54504803  0.56659399     0.14900
H1224       H  0.03005607  0.55287994  0.68165858     0.14900
C1225       C  0.01925031  0.51347019  0.62560739     0.36500
C1226       C  0.11131196  0.58504540  0.62202595     0.36400
N1227       N  0.00056095  0.49894690  0.62702366    -0.43800
N1228       N  0.12950104  0.60015294  0.61972337    -0.43800
C1229       C  0.06459738  0.57221792  0.84257006    -0.00200
C1230       C  0.04204030  0.57241483  0.87097244    -0.12100
C1231       C  0.03940746  0.55273437  0.90374766     0.02000
C1232       C  0.05979723  0.53249949  0.90851373    -0.00300
C1233       C  0.08196266  0.53203794  0.87948855    -0.12000
C1234       C  0.08440157  0.55136720  0.84650057     0.01900
H1235       H  0.02661544  0.58822134  0.86799330     0.14900
H1236       H  0.09731100  0.51611604  0.88201829     0.14900
C1237       C  0.10679666  0.54836918  0.81607680     0.36500
C1238       C  0.01605795  0.55436845  0.93253165     0.36400
N1239       N  0.12467571  0.54579995  0.79165616    -0.43800
N1240       N  0.99727048  0.55570788  0.95542438    -0.43800
C1241       C  0.07942747  0.71369009  0.57401878    -0.00200
C1242       C  0.09962807  0.71613175  0.60658738    -0.12100
C1243       C  0.09921743  0.69941087  0.64345367     0.02000
C1244       C  0.07844359  0.67967912  0.64819515    -0.00300
C1245       C  0.05943778  0.67586500  0.61480295    -0.12000
C1246       C  0.05992823  0.69219167  0.57777507     0.01900
H1247       H  0.11558569  0.73127758  0.60466603     0.14900
H1248       H  0.04396256  0.66002711  0.61772882     0.14900
C1249       C  0.03911657  0.68710980  0.54526231     0.36500
C1250       C  0.11944145  0.70398675  0.67697607     0.36400
N1251       N  0.02228103  0.68312554  0.51954159    -0.43800
N1252       N  0.13559124  0.70765937  0.70389475    -0.43800
C1253       C  0.07712190  0.72711662  0.90973480    -0.00200
C1254       C  0.05161190  0.71869596  0.89400109    -0.12100
C1255       C  0.04954602  0.70019810  0.85906913     0.02000
C1256       C  0.07356331  0.68984530  0.83867846    -0.00300
C1257       C  0.09906001  0.70006339  0.85277549    -0.12000
C1258       C  0.10094825  0.71833600  0.88804990     0.01900
H1259       H  0.03325480  0.72498913  0.91121821     0.14900
H1260       H  0.11773513  0.69299178  0.83738328     0.14900
C1261       C  0.12759657  0.72698038  0.90295611     0.36500
C1262       C  0.02246769  0.69101563  0.84724921     0.36400
N1263       N  0.14575117  0.72700173  0.43081898    -0.43800
N1264       N  0.00073495  0.68362700  0.83799967    -0.43800
C1265       C  0.39682168  0.07596838  0.59775954    -0.00200
C1266       C  0.37836932  0.05421531  0.60373411    -0.12100
C1267       C  0.35786919  0.05523164  0.63579601     0.02000
C1268       C  0.35539767  0.07848026  0.66336820    -0.00300
C1269       C  0.37369151  0.10030635  0.65721282    -0.12000
C1270       C  0.39426214  0.09923551  0.62521202     0.01900
H1271       H  0.37970043  0.03632389  0.58285385     0.14900
H1272       H  0.37230209  0.11817862  0.67811592     0.14900
C1273       C  0.41298650  0.12202822  0.62266123     0.36500
C1274       C  0.33925530  0.03229924  0.63848980     0.36400
N1275       N  0.42801377  0.14029953  0.62079265    -0.43800
N1276       N  0.32437791  0.01390574  0.64057468    -0.43800
C1277       C  0.39510835  0.07647321  0.91522495    -0.00200
C1278       C  0.38902860  0.10191026  0.89643156    -0.12100
C1279       C  0.36906506  0.10433589  0.86417251     0.02000
C1280       C  0.35432332  0.08087997  0.85043505    -0.00300
C1281       C  0.36041564  0.05551738  0.86926342    -0.12000
C1282       C  0.38052960  0.05301097  0.90102532     0.01900
H1283       H  0.40013950  0.12006731  0.90652011     0.14900
H1284       H  0.34942741  0.03729264  0.85912787     0.14900
C1285       C  0.38546919  0.02588705  0.91786569     0.36500
C1286       C  0.36489339  0.13107896  0.84538690     0.36400
N1287       N  0.36960901  0.01738568  0.46899364    -0.43800
N1288       N  0.36168497  0.15251583  0.83033063    -0.43800
C1289       C  0.12349742  0.10897330  0.50984085    -0.00200
C1290       C  0.11313656  0.11274736  0.96347493    -0.12100
C1291       C  0.09128493  0.13092191  0.95705204     0.02000
C1292       C  0.07950124  0.14684588  0.49843952    -0.00300
C1293       C  0.08944922  0.14096603  0.54006780    -0.12000
C1294       C  0.11051027  0.12181917  0.54630704     0.01900
H1295       H  0.12362641  0.10448291  0.93526743     0.14900
H1296       H  0.08116993  0.15180880  0.56798731     0.14900
C1297       C  0.11742977  0.11561941  0.59090071     0.36500
C1298       C  0.08141016  0.13421804  0.91307260     0.36400
N1299       N  0.12280779  0.11095561  0.62683481    -0.43800
N1300       N  0.07347435  0.13670702  0.87780039    -0.43800
C1301       C  0.21117903  0.08295068  0.58438114    -0.00200
C1302       C  0.20361280  0.06824746  0.62213962    -0.12100
C1303       C  0.21982649  0.06836192  0.65919505     0.02000
C1304       C  0.24307962  0.08510990  0.66042652    -0.00300
C1305       C  0.24874592  0.10273658  0.62562550    -0.12000
C1306       C  0.23282923  0.10213665  0.58786339     0.01900
H1307       H  0.18507056  0.05608855  0.62272503     0.14900
H1308       H  0.26600063  0.11666788  0.62763026     0.14900
C1309       C  0.23843089  0.12252350  0.55513957     0.36500
C1310       C  0.21186346  0.05150025  0.69572420     0.36400
N1311       N  0.24312614  0.13907309  0.52927803    -0.43800
N1312       N  0.20552332  0.03795095  0.72491623    -0.43800
C1313       C  0.20044250  0.08361919  0.92108854    -0.00200
C1314       C  0.20522106  0.05958349  0.89760326    -0.12100
C1315       C  0.22297514  0.05935528  0.86165694     0.02000
C1316       C  0.23653502  0.08379249  0.84840309    -0.00300
C1317       C  0.22961479  0.10833644  0.86988736    -0.12000
C1318       C  0.21178939  0.10837867  0.90587725     0.01900
H1319       H  0.19648281  0.04051279  0.90916500     0.14900
H1320       H  0.23895717  0.12742213  0.85979145     0.14900
C1321       C  0.20576122  0.13396437  0.92746558     0.36500
C1322       C  0.22740787  0.03332354  0.84044908     0.36400
N1323       N  0.20065696  0.15441498  0.94472099    -0.43800
N1324       N  0.23091389  0.01236095  0.82374230    -0.43800
C1325       C  0.51091375  0.06511574  0.90983577    -0.00200
C1326       C  0.51848850  0.03891187  0.89490394    -0.12100
C1327       C  0.53830894  0.03528340  0.86208928     0.02000
C1328       C  0.55162774  0.05826598  0.84342672    -0.00300
C1329       C  0.54366916  0.08443638  0.85786445    -0.12000
C1330       C  0.52360678  0.08808364  0.89011872     0.01900
H1331       H  0.50887104  0.02096023  0.90889211     0.14900
H1332       H  0.55312859  0.10244273  0.84378865     0.14900
C1333       C  0.51650983  0.11585580  0.90159410     0.36500
C1334       C  0.54420636  0.00762108  0.84843183     0.36400
N1335       N  0.51081045  0.13814923  0.91053767    -0.43800
N1336       N  0.54869291  0.98538456  0.83754454    -0.43800
C1337       C  0.51244617  0.06318472  0.59556949    -0.00200
C1338       C  0.53272938  0.08349025  0.59782864    -0.12100
C1339       C  0.55369544  0.08210780  0.62859658     0.02000
C1340       C  0.55444045  0.06016013  0.65839000    -0.00300
C1341       C  0.53411502  0.03988743  0.65627727    -0.12000
C1342       C  0.51321550  0.04117491  0.62536676     0.01900
H1343       H  0.53258310  0.10027679  0.57479055     0.14900
H1344       H  0.53430407  0.02309799  0.67931942     0.14900
C1345       C  0.49252862  0.02003744  0.62612333     0.36500
C1346       C  0.57474924  0.10284540  0.62738338     0.36400
N1347       N  0.47606073  0.00301257  0.62695560    -0.43800
N1348       N  0.59165506  0.11942108  0.62622898    -0.43800
C1349       C  0.70226152  0.04189211  0.92027512    -0.00200
C1350       C  0.69807141  0.01975357  0.89136369    -0.12100
C1351       C  0.68111703  0.02186054  0.85514385     0.02000
C1352       C  0.66692488  0.04642680  0.84719984    -0.00300
C1353       C  0.67091700  0.06866767  0.87544275    -0.12000
C1354       C  0.68817463  0.06667715  0.91156078     0.01900
H1355       H  0.70735447  0.99999289  0.89631172     0.14900
H1356       H  0.66002171  0.08766630  0.86987236     0.14900
C1357       C  0.69069544  0.09051413  0.93921254     0.36500
C1358       C  0.67918114  0.99839951  0.82647729     0.36400
N1359       N  0.69264880  0.10980026  0.96093538    -0.43800
N1360       N  0.67781040  0.97952035  0.80373764    -0.43800
C1361       C  0.67077233  0.04974998  0.65802646    -0.00200
C1362       C  0.67707648  0.07383450  0.63488882    -0.12100
C1363       C  0.69464705  0.07343298  0.59860642     0.02000
C1364       C  0.70649956  0.04865311  0.58454669    -0.00300
C1365       C  0.70178807  0.02493495  0.60900266    -0.12000
C1366       C  0.68428953  0.02524491  0.64549371     0.01900
H1367       H  0.66752750  0.09299847  0.64413292     0.14900
H1368       H  0.71084518  0.00579792  0.59836533     0.14900
C1369       C  0.68065642  0.00000014  0.66908109     0.36500
C1370       C  0.69998309  0.09868841  0.57582514     0.36400
N1371       N  0.67794954  0.97969382  0.68790579    -0.43800
N1372       N  0.70445197  0.11900010  0.55788098    -0.43800
C1373       C  0.37832352  0.86541905  0.83606269    -0.00200
C1374       C  0.38086010  0.84108786  0.86007596    -0.12100
C1375       C  0.40030493  0.83838127  0.89346461     0.02000
C1376       C  0.41803310  0.86044598  0.90391127    -0.00300
C1377       C  0.41588280  0.88456027  0.87925662    -0.12000
C1378       C  0.39659446  0.88718952  0.84566397     0.01900
H1379       H  0.36719696  0.82410360  0.85336211     0.14900
H1380       H  0.42948970  0.90158190  0.88603723     0.14900
C1381       C  0.39667389  0.91238558  0.82120255     0.36500
C1382       C  0.40085987  0.81284402  0.91696985     0.36400
N1383       N  0.39691831  0.93259371  0.80164669    -0.43800
N1384       N  0.40125050  0.79232304  0.93567049    -0.43800
C1385       C  0.37283094  0.86393080  0.65033949    -0.00200
C1386       C  0.37870176  0.88700563  0.62483577    -0.12100
C1387       C  0.39833736  0.88606489  0.59178771     0.02000
C1388       C  0.41267179  0.86144836  0.58347070    -0.00300
C1389       C  0.40658954  0.83827485  0.60866477    -0.12000
C1390       C  0.38714615  0.83932193  0.64206572     0.01900
H1391       H  0.36782507  0.90600310  0.63059839     0.14900
H1392       H  0.41765119  0.81935593  0.60317816     0.14900
C1393       C  0.38352486  0.81516932  0.66847113     0.36500
C1394       C  0.40288286  0.91071470  0.56690921     0.36400
N1395       N  0.38084937  0.79579261  0.68964360    -0.43800
N1396       N  0.40648278  0.93054759  0.54719178    -0.43800
C1397       C  0.10709836  0.80418876  0.50110007    -0.00200
C1398       C  0.11606608  0.81700670  0.53984773    -0.12100
C1399       C  0.13549861  0.83825894  0.53962259     0.02000
C1400       C  0.14546419  0.84865757  0.49967038    -0.00300
C1401       C  0.13444057  0.83867070  0.95716171    -0.12000
C1402       C  0.11627107  0.81631981  0.95714334     0.01900
H1403       H  0.10881127  0.80950863  0.57100812     0.14900
H1404       H  0.14058616  0.84714974  0.92606287     0.14900
C1405       C  0.10885722  0.80461574  0.91562115     0.36500
C1406       C  0.14601773  0.84719935  0.58115351     0.36400
N1407       N  0.10319099  0.79535965  0.88207236    -0.43800
N1408       N  0.15422020  0.85404849  0.61482370    -0.43800
C1409       C  0.22981628  0.88519948  0.91914715    -0.00200
C1410       C  0.22922204  0.90418255  0.88450955    -0.12100
C1411       C  0.24649880  0.90178400  0.84861073     0.02000
C1412       C  0.26425965  0.87929405  0.84525211    -0.00300
C1413       C  0.26396583  0.85932079  0.87792961    -0.12000
C1414       C  0.24705982  0.86200559  0.91455119     0.01900
H1415       H  0.21485292  0.92078780  0.88357509     0.14900
H1416       H  0.27740713  0.84175469  0.87527573     0.14900
C1417       C  0.24791464  0.84046614  0.94664528     0.36500
C1418       C  0.24480753  0.92243999  0.81508028     0.36400
N1419       N  0.24883359  0.82321364  0.97233718    -0.43800
N1420       N  0.24341401  0.93916681  0.78857337    -0.43800
C1421       C  0.25645900  0.87889647  0.65674779    -0.00200
C1422       C  0.24656680  0.85528838  0.63543466    -0.12100
C1423       C  0.22856364  0.85713803  0.59984030     0.02000
C1424       C  0.21970702  0.88289586  0.58489285    -0.00300
C1425       C  0.22790830  0.90635447  0.60770840    -0.12000
C1426       C  0.24593804  0.90466401  0.64331143     0.01900
H1427       H  0.25379501  0.83528942  0.64527210     0.14900
H1428       H  0.22140696  0.92625340  0.59612383     0.14900
C1429       C  0.25370896  0.92995724  0.66434770     0.36500
C1430       C  0.22021456  0.83236213  0.57783300     0.36400
N1431       N  0.25991268  0.95028265  0.68108164    -0.43800
N1432       N  0.21332707  0.81258159  0.56016381    -0.43800
C1433       C  0.52874036  0.85182739  0.59396867    -0.00200
C1434       C  0.53375421  0.82631027  0.61370559    -0.12100
C1435       C  0.55293431  0.82334301  0.64749624     0.02000
C1436       C  0.56788885  0.84629535  0.66269233    -0.00300
C1437       C  0.56277524  0.87179462  0.64302463    -0.12000
C1438       C  0.54370369  0.87477117  0.60925093     0.01900
H1439       H  0.52257280  0.80839124  0.60280833     0.14900
H1440       H  0.57403166  0.88973301  0.65365029     0.14900
C1441       C  0.54053834  0.90171259  0.59072753     0.36500
C1442       C  0.55644324  0.79645441  0.66595125     0.36400
N1443       N  0.53811080  0.92334597  0.57601322    -0.43800
N1444       N  0.55914892  0.77484594  0.68062171    -0.43800
C1445       C  0.57324065  0.84550533  0.85126501    -0.00200
C1446       C  0.57423998  0.86747388  0.88071863    -0.12100
C1447       C  0.55506621  0.86984400  0.91418629     0.02000
C1448       C  0.53417342  0.85002267  0.91821918    -0.00300
C1449       C  0.53367399  0.82760717  0.88963168    -0.12000
C1450       C  0.55288833  0.82519053  0.85622391     0.01900
H1451       H  0.59016038  0.88283937  0.87770318     0.14900
H1452       H  0.51761198  0.81236931  0.89238640     0.14900
C1453       C  0.55015770  0.80244890  0.82637122     0.36500
C1454       C  0.55779280  0.89245179  0.94433160     0.36400
N1455       N  0.54775411  0.78417535  0.80261689    -0.43800
N1456       N  0.56004603  0.91054152  0.96848243    -0.43800
C1457       C  0.68111121  0.84170647  0.65637459    -0.00200
C1458       C  0.70606047  0.85524996  0.66084847    -0.12100
C1459       C  0.72390241  0.85731548  0.62562399     0.02000
C1460       C  0.71581862  0.84730769  0.58400023    -0.00300
C1461       C  0.69167713  0.83162615  0.58113318    -0.12000
C1462       C  0.67438153  0.82874476  0.61693238     0.01900
H1463       H  0.71158999  0.86421552  0.69202572     0.14900
H1464       H  0.68600885  0.82124442  0.55142050     0.14900
C1465       C  0.64927298  0.81343792  0.61180693     0.36500
C1466       C  0.75017898  0.87003393  0.63339752     0.36400
N1467       N  0.62919719  0.80114156  0.60767927    -0.43800
N1468       N  0.77115275  0.88028361  0.63977113    -0.43800
C1469       C  0.72760876  0.84570862  0.91207638    -0.00200
C1470       C  0.72428885  0.86862394  0.88541037    -0.12100
C1471       C  0.70621898  0.86794365  0.84982117     0.02000
C1472       C  0.69072355  0.84392625  0.84070414    -0.00300
C1473       C  0.69655520  0.82018569  0.86467246    -0.12000
C1474       C  0.71483307  0.82088786  0.89985017     0.01900
H1475       H  0.73430943  0.88766561  0.89419523     0.14900
H1476       H  0.68580075  0.80130012  0.85747264     0.14900
C1477       C  0.71919237  0.79615467  0.92450998     0.36500
C1478       C  0.70365603  0.89249630  0.82410389     0.36400
N1479       N  0.72276658  0.77644057  0.94447612    -0.43800
N1480       N  0.70167223  0.91216815  0.80346152    -0.43800
C1481       C  0.86017488  0.39969502  0.60129995    -0.00200
C1482       C  0.88462762  0.39015567  0.62008679    -0.12100
C1483       C  0.88464520  0.36984960  0.65255880     0.02000
C1484       C  0.85964596  0.35832475  0.66738811    -0.00300
C1485       C  0.83527133  0.36775830  0.64837039    -0.12000
C1486       C  0.83523589  0.38796393  0.61594401     0.01900
H1487       H  0.90401276  0.39871859  0.60960072     0.14900
H1488       H  0.81584861  0.35921278  0.65871849     0.14900
C1489       C  0.80903073  0.39572452  0.59827942     0.36500
C1490       C  0.91076812  0.36170638  0.67009783     0.36400
N1491       N  0.78789375  0.40175517  0.58441475    -0.43800
N1492       N  0.93179465  0.35530750  0.68397509    -0.43800
C1493       C  0.85818044  0.35749802  0.85531200    -0.00200
C1494       C  0.83470523  0.37345577  0.86233740    -0.12100
C1495       C  0.83380494  0.39328681  0.89498139     0.02000
C1496       C  0.85707096  0.39792193  0.92127137    -0.00300
C1497       C  0.88043997  0.38165031  0.91477927    -0.12000
C1498       C  0.88116797  0.36147342  0.88245587     0.01900
H1499       H  0.81679345  0.37059661  0.84201447     0.14900
H1500       H  0.89829645  0.38456661  0.93519900     0.14900
C1501       C  0.90549275  0.34485757  0.87902080     0.36500
C1502       C  0.80873942  0.40861820  0.89981892     0.36400
N1503       N  0.92499548  0.33155185  0.87652341    -0.43800
N1504       N  0.78851181  0.42066205  0.90360617    -0.43800
C1505       C  0.81970250  0.12859236  0.50328560    -0.00200
C1506       C  0.82392752  0.10410619  0.52629296    -0.12100
C1507       C  0.80447375  0.08265841  0.52556194     0.02000
C1508       C  0.77986193  0.08544410  0.50140578    -0.00300
C1509       C  0.77370881  0.10996419  0.98889435    -0.12000
C1510       C  0.79248775  0.13157182  0.98962903     0.01900
H1511       H  0.84220408  0.10205580  0.54599811     0.14900
H1512       H  0.75343727  0.11394659  0.97621997     0.14900
C1513       C  0.78356700  0.15807750  0.97478631     0.36500
C1514       C  0.81042616  0.05866085  0.55090610     0.36400
N1515       N  0.77607818  0.17927311  0.96320800    -0.43800
N1516       N  0.81547436  0.03983566  0.57218487    -0.43800
C1517       C  0.84810838  0.20823923  0.59608321    -0.00200
C1518       C  0.86437232  0.20225274  0.63277195    -0.12100
C1519       C  0.86504544  0.21966356  0.66867612     0.02000
C1520       C  0.84782518  0.24263238  0.66971485    -0.00300
C1521       C  0.82827059  0.24608459  0.63682455    -0.12000
C1522       C  0.82790182  0.22882224  0.60045544     0.01900
H1523       H  0.87707438  0.18416486  0.63358203     0.14900
H1524       H  0.81384229  0.26288313  0.63876726     0.14900
C1525       C  0.80647650  0.23271855  0.56874178     0.36500
C1526       C  0.88346552  0.21333103  0.70401139     0.36400
N1527       N  0.78930337  0.23598154  0.54338439    -0.43800
N1528       N  0.89829395  0.20821807  0.73217649    -0.43800
C1529       C  0.84861974  0.24354938  0.85814321    -0.00200
C1530       C  0.87168232  0.22736713  0.86720805    -0.12100
C1531       C  0.87257970  0.21001547  0.90356796     0.02000
C1532       C  0.84961864  0.20756391  0.93126974    -0.00300
C1533       C  0.82623520  0.22311360  0.92158956    -0.12000
C1534       C  0.82557793  0.24110319  0.88596030     0.01900
H1535       H  0.88976240  0.22918917  0.84689300     0.14900
H1536       H  0.80886065  0.22237864  0.94353820     0.14900
C1537       C  0.80179198  0.25829836  0.88123120     0.36500
C1538       C  0.89857224  0.19791337  0.91404003     0.36400
N1539       N  0.78281104  0.27223884  0.87781276    -0.43800
N1540       N  0.92235033  0.19259188  0.42310868    -0.43800
C1541       C  0.87275547  0.55355975  0.84308581    -0.00200
C1542       C  0.84724129  0.54115825  0.85117404    -0.12100
C1543       C  0.84396956  0.52105330  0.88332414     0.02000
C1544       C  0.86652812  0.51307651  0.90925185    -0.00300
C1545       C  0.89216955  0.52493952  0.90042409    -0.12000
C1546       C  0.89553674  0.54473347  0.86781624     0.01900
H1547       H  0.82957203  0.54709780  0.83212768     0.14900
H1548       H  0.90982027  0.51901181  0.91952730     0.14900
C1549       C  0.92267272  0.55569190  0.86135909     0.36500
C1550       C  0.81728718  0.50863914  0.88781816     0.36400
N1551       N  0.94454836  0.56420418  0.85634665    -0.43800
N1552       N  0.79587806  0.49870268  0.89099579    -0.43800
C1553       C  0.87065580  0.51759074  0.59685729    -0.00200
C1554       C  0.84995456  0.53738750  0.59886290    -0.12100
C1555       C  0.85129153  0.55891190  0.62868068     0.02000
C1556       C  0.87362912  0.56068920  0.65770178    -0.00300
C1557       C  0.89467856  0.54129159  0.65498756    -0.12000
C1558       C  0.89339130  0.51979856  0.62505534     0.01900
H1559       H  0.83274361  0.53625478  0.57666463     0.14900
H1560       H  0.91183451  0.54237628  0.67729711     0.14900
C1561       C  0.91511535  0.49979650  0.62557095     0.36500
C1562       C  0.82979207  0.57915457  0.62781385     0.36400
N1563       N  0.93254194  0.48380767  0.62611035    -0.43800
N1564       N  0.81257923  0.59536903  0.62702560    -0.43800
C1565       C  0.80370406  0.82565597  0.50811489    -0.00200
C1566       C  0.81751655  0.81845856  0.54682057    -0.12100
C1567       C  0.83804458  0.79831225  0.54734290     0.02000
C1568       C  0.84709981  0.78634534  0.50789020    -0.00300
C1569       C  0.83955608  0.79761887  0.96104266    -0.12000
C1570       C  0.81690386  0.81527829  0.96017234     0.01900
H1571       H  0.81089900  0.82721826  0.57757268     0.14900
H1572       H  0.84758279  0.79028538  0.93022725     0.14900
C1573       C  0.80420468  0.82046631  0.91859918     0.36500
C1574       C  0.84703895  0.78861544  0.58926264     0.36400
N1575       N  0.79424272  0.82445398  0.88502862    -0.43800
N1576       N  0.85379623  0.78088213  0.62318394    -0.43800
C1577       C  0.87838084  0.66654286  0.85547705    -0.00200
C1578       C  0.88863199  0.69293977  0.85038165    -0.12100
C1579       C  0.88968170  0.71081374  0.88577170     0.02000
C1580       C  0.88232992  0.70147584  0.92810949    -0.00300
C1581       C  0.87060942  0.67522765  0.93206430    -0.12000
C1582       C  0.86835268  0.65793208  0.89606839     0.01900
H1583       H  0.89522275  0.69977821  0.81842307     0.14900
H1584       H  0.86240009  0.66803060  0.96257111     0.14900
C1585       C  0.85586590  0.63133705  0.90159645     0.36500
C1586       C  0.89788832  0.73872730  0.87722373     0.36400
N1587       N  0.84568961  0.61012920  0.90595189    -0.43800
N1588       N  0.90434921  0.76108591  0.87030209    -0.43800
C1589       C  0.88369421  0.71463185  0.59630184    -0.00200
C1590       C  0.85805612  0.70571581  0.61109346    -0.12100
C1591       C  0.85565130  0.68710356  0.64563852     0.02000
C1592       C  0.87942301  0.67718555  0.66693700    -0.00300
C1593       C  0.90501444  0.68771369  0.65375092    -0.12000
C1594       C  0.90729102  0.70594068  0.61854571     0.01900
H1595       H  0.83989296  0.71168379  0.59323448     0.14900
H1596       H  0.92353485  0.68064478  0.66945043     0.14900
C1597       C  0.93418824  0.71348965  0.60321155     0.36500
C1598       C  0.82858331  0.67707322  0.65576085     0.36400
N1599       N  0.95573394  0.71752675  0.08521351    -0.43800
N1600       N  0.80693250  0.66884954  0.66366929    -0.43800
loop_ 
_geom_bond_atom_site_label_1 
_geom_bond_atom_site_label_2 
_geom_bond_distance 
_geom_bond_site_symmetry_2 
_ccdc_geom_bond_type 
C1            C2   1.530       .  S
C1            C7   1.537       .  S
C1            C5   1.527       .  S
C1          C780   1.528       .  S
C2            H9   1.085       .  S
C2          C803   1.370       .  D
C3            C4   1.564   1_556  S
C3          C802   1.368       .  D
C3          C768   1.514   1_556  S
C4            C8   1.553       .  S
C4            C6   1.548       .  S
C4           H10   1.106       .  S
C5           H11   1.087       .  S
C5          C806   1.356       .  D
C6          C805   1.356   1_554  D
C6          C303   1.472       .  S
C7          H812   1.081       .  S
C7          C808   1.362       .  D
C8          C807   1.362       .  D
C8          C789   1.489       .  S
H12         C807   1.082       .  S
O13         Ni21   1.928       .  S
O13          C23   1.283       .  A
O14         Ni21   1.931       .  S
O14          C24   1.284       .  A
O15         Ni21   1.912       .  S
O15          C25   1.279       .  A
O16         Ni21   1.913       .  S
O16          C26   1.282       .  A
O17         Ni22   1.906       .  S
O17          C26   1.278       .  A
O18         Ni22   1.905       .  S
O18          C25   1.277       .  A
O19         Ni22   1.931       .  S
O19          C24   1.284       .  A
O20         Ni22   1.932       .  S
O20          C23   1.285       .  A
Ni21        Ni22   2.383       .  S
C23         C741   1.508       .  S
C24         C792   1.508       .  S
C25         C777   1.459       .  S
C26         C756   1.483       .  S
C27          C28   1.525       .  S
C27          C33   1.535       .  S
C27          C31   1.535       .  S
C27         C717   1.527       .  S
C28          H35   1.087       .  S
C28          C29   1.361       .  D
C29         C830   1.559   1_554  S
C29         C705   1.492       .  S
C30          C34   1.554       .  S
C30         C829   1.558       .  S
C30         C832   1.548       .  S
C30          H36   1.110       .  S
C31          H37   1.083       .  S
C31          C32   1.357       .  D
C32         C830   1.547   1_554  S
C32         C292   1.476       .  S
C33          H38   1.086       .  S
C33         C834   1.367   1_554  D
C34         C833   1.364       .  D
C34         C732   1.493       .  S
O39         Ni47   1.918       .  S
O39          C49   1.281       .  A
O40         Ni47   1.914       .  S
O40          C50   1.280       .  A
O41         Ni47   1.905       .  S
O41          C51   1.279       .  A
O42         Ni47   1.903       .  S
O42          C52   1.280       .  A
O43         Ni48   1.908       .  S
O43          C52   1.278       .  A
O44         Ni48   1.904       .  S
O44          C51   1.279       .  A
O45         Ni48   1.932       .  S
O45          C50   1.285       .  A
O46         Ni48   1.930       .  S
O46          C49   1.285       .  A
Ni47        Ni48   2.385       .  S
C49         C729   1.499       .  S
C50         C684   1.501       .  S
C51         C693   1.465       .  S
C52         C720   1.470       .  S
O53        Ni861   1.926       .  S
O53          C63   1.283       .  A
O54         Ni61   1.922       .  S
O54          C64   1.282       .  A
O55         Ni61   1.911       .  S
O55          C65   1.281       .  A
O56        Ni861   1.909       .  S
O56          C66   1.280       .  A
O57        Ni862   1.899       .  S
O57          C66   1.278       .  A
O58         Ni62   1.905       .  S
O58          C65   1.279       .  A
O59         Ni62   1.923       .  S
O59          C64   1.284       .  A
O60        Ni862   1.932       .  S
O60          C63   1.285       .  A
Ni61        O853   1.922   1_554  S
Ni61        O856   1.908   1_554  S
Ni61        Ni62   2.382       .  S
Ni62        O857   1.904   1_554  S
Ni62        O860   1.923   1_554  S
C63         C744   1.507       .  S
C64         C681   1.500       .  S
C65         C753   1.481       .  S
C66         C696   1.465       .  S
C67          C68   1.529       .  S
C67          C73   1.535   1_554  S
C67          C71   1.527       .  S
C67         C660   1.524       .  S
C68          H75   1.086       .  S
C68          C69   1.368       .  D
C69         C870   1.558   1_554  S
C69         C765   1.507   1_554  S
C70          C74   1.550       .  S
C70         C869   1.561       .  S
C70         C872   1.550       .  S
C70          H76   1.109       .  S
C71          H77   1.087       .  S
C71          C72   1.354   1_554  D
C72         C870   1.549       .  S
C72         C320   1.471       .  S
C73          H78   1.081       .  S
C73         C874   1.364       .  D
C74         C873   1.364       .  D
C74         C669   1.490       .  S
O79         Ni87   1.917       .  S
O79          C89   1.282       .  A
O80         Ni87   1.915       .  S
O80          C90   1.280       .  A
O81         Ni87   1.910       .  S
O81          C91   1.280       .  A
O82         Ni87   1.911       .  S
O82          C92   1.281       .  A
O83         Ni88   1.895       .  S
O83          C92   1.276       .  A
O84         Ni88   1.895       .  S
O84          C91   1.275       .  A
O85         Ni88   1.940       .  S
O85          C90   1.288       .  A
O86         Ni88   1.939       .  S
O86          C89   1.286       .  A
Ni87        Ni88   2.386       .  S
C89         C636   1.505       .  S
C90         C672   1.502       .  S
C91         C657   1.453       .  S
C92         C645   1.470       .  S
C93          C94   1.528       .  S
C93          C99   1.531       .  S
C93          C97   1.536       .  S
C93         C609   1.530       .  S
C94         H101   1.085       .  S
C94         C895   1.369       .  D
C95          C96   1.559   1_556  S
C95         C894   1.371       .  D
C95         C600   1.514       .  S
C96         C100   1.550       .  S
C96          C98   1.543   1_554  S
C96         H102   1.107       .  S
C97         H103   1.081       .  S
C97         C898   1.355       .  D
C98         C897   1.354       .  D
C98         C275   1.471       .  S
C99         H904   1.086       .  S
C99         C900   1.365       .  D
C100        C899   1.365       .  D
C100        C624   1.487       .  S
H104        C899   1.086       .  S
O105       Ni113   1.922       .  S
O105        C115   1.282       .  A
O106       Ni113   1.924       .  S
O106        C116   1.282       .  A
O107       Ni113   1.899       .  S
O107        C117   1.279       .  A
O108       Ni113   1.900       .  S
O108        C118   1.279       .  A
O109       Ni114   1.906       .  S
O109        C118   1.278       .  A
O110       Ni114   1.904       .  S
O110        C117   1.278       .  A
O111       Ni114   1.928       .  S
O111        C116   1.284       .  A
O112       Ni114   1.930       .  S
O112        C115   1.285       .  A
Ni113      Ni114   2.385       .  S
C115        C621   1.502       .  S
C116        C573   1.498       .  S
C117        C585   1.475       .  S
C118        C612   1.464       .  S
O119       Ni127   1.926       .  S
O119        C129   1.283       .  A
O120       Ni927   1.923       .  S
O120        C130   1.282       .  A
O121       Ni927   1.912       .  S
O121        C131   1.281       .  A
O122       Ni127   1.906       .  S
O122        C132   1.280       .  A
O123       Ni128   1.899       .  S
O123        C132   1.277       .  A
O124       Ni928   1.900       .  S
O124        C131   1.277       .  A
O125       Ni928   1.929       .  S
O125        C130   1.284       .  A
O126       Ni128   1.928       .  S
O126        C129   1.284       .  A
Ni127       O920   1.924   1_554  S
Ni127       O921   1.907   1_554  S
Ni127      Ni128   2.383       .  S
Ni128       O924   1.898   1_554  S
Ni128       O925   1.928   1_554  S
C129        C633   1.505       .  S
C130        C576   1.499       .  S
C131        C648   1.473       .  S
C132        C588   1.475       .  S
C133        C134   1.533       .  S
C133        C139   1.529       .  S
C133        C137   1.529       .  S
C133        C549   1.534       .  S
C134        H141   1.085       .  S
C134        C935   1.375       .  D
C135        C136   1.563   1_556  S
C135        C934   1.372       .  D
C135        C708   1.514   1_556  S
C136        C140   1.550       .  S
C136        C138   1.557       .  S
C136        H142   1.106       .  S
C137        H143   1.079   1_545  S
C137        C938   1.356       .  D
C138        C937   1.356   1_554  D
C138        C317   1.481   1_545  S
C139        H944   1.087       .  S
C139        C940   1.362       .  D
C140        C939   1.362       .  D
C140        C564   1.490       .  S
H144        C939   1.087       .  S
O145       Ni153   1.925       .  S
O145        C155   1.282       .  A
O146       Ni153   1.923       .  S
O146        C156   1.282       .  A
O147       Ni153   1.904       .  S
O147        C157   1.279       .  A
O148       Ni153   1.903       .  S
O148        C158   1.279       .  A
O149       Ni154   1.904       .  S
O149        C158   1.279       .  A
O150       Ni154   1.904       .  S
O150        C157   1.278       .  A
O151       Ni154   1.934       .  S
O151        C156   1.286       .  A
O152       Ni154   1.934       .  S
O152        C155   1.285       .  A
Ni153      Ni154   2.384       .  S
C155        C561   1.505       .  S
C156        C528   1.502       .  S
C157        C540   1.466       .  S
C158        C552   1.477       .  S
C159        C160   1.528       .  S
C159        C165   1.535       .  S
C159        C163   1.533       .  S
C159        C501   1.527       .  S
C160        H167   1.084       .  S
C160        C161   1.369       .  D
C161        C962   1.558   1_554  S
C161        C489   1.507       .  S
C162        C166   1.550       .  S
C162        C961   1.567       .  S
C162        C964   1.546       .  S
C162        H168   1.108       .  S
C163        H169   1.087       .  S
C163        C164   1.353       .  D
C164        C962   1.545   1_554  S
C164        C278   1.470       .  S
C165        H170   1.083   1_554  S
C165        C966   1.365   1_554  D
C166        C965   1.366       .  D
C166        C513   1.481       .  S
O171       Ni179   1.915       .  S
O171        C181   1.281       .  A
O172       Ni179   1.912       .  S
O172        C182   1.279       .  A
O173       Ni179   1.909       .  S
O173        C183   1.280       .  A
O174       Ni179   1.913       .  S
O174        C184   1.282       .  A
O175       Ni180   1.905       .  S
O175        C184   1.278       .  A
O176       Ni180   1.898       .  S
O176        C183   1.277       .  A
O177       Ni180   1.931       .  S
O177        C182   1.286       .  A
O178       Ni180   1.928       .  S
O178        C181   1.284       .  A
Ni179      Ni180   2.387       .  S
C181        C468   1.489       .  S
C182        C516   1.497       .  S
C183        C504   1.461       .  S
C184        C480   1.474       .  S
O185       Ni993   1.923       .  S
O185        C195   1.282       .  A
O186       Ni193   1.924       .  S
O186        C196   1.282       .  A
O187       Ni193   1.911       .  S
O187        C197   1.281       .  A
O188       Ni993   1.916       .  S
O188        C198   1.281       .  A
O189       Ni994   1.903       .  S
O189        C198   1.279       .  A
O190       Ni194   1.897       .  S
O190        C197   1.277       .  A
O191       Ni194   1.922       .  S
O191        C196   1.283       .  A
O192       Ni994   1.932       .  S
O192        C195   1.285       .  A
Ni193       O985   1.923   1_554  S
Ni193       O988   1.914   1_554  S
Ni193      Ni194   2.383       .  S
Ni194       O989   1.893   1_554  S
Ni194       O992   1.927   1_554  S
C195        C525   1.502       .  S
C196        C465   1.491       .  S
C197        C537   1.468       .  S
C198        C477   1.477       .  S
C199        C200   1.539       .  S
C199        C205   1.528   1_554  S
C199        C203   1.528       .  S
C199        C441   1.527       .  S
C200        H207   1.079       .  S
C200        C201   1.373   1_554  D
C201       C1002   1.563       .  S
C201        C597   1.512       .  S
C202        C206   1.546       .  S
C202       C1001   1.562       .  S
C202       C1004   1.545       .  S
C202        H208   1.108       .  S
C203        H209   1.088       .  S
C203        C204   1.352   1_554  D
C204       C1002   1.542       .  S
C204        C306   1.469       .  S
C205        H210   1.087       .  S
C205       C1006   1.362       .  D
C206       C1005   1.363       .  D
C206        C453   1.485       .  S
O211       Ni219   1.924       .  S
O211        C221   1.282       .  A
O212       Ni219   1.919       .  S
O212        C222   1.283       .  A
O213       Ni219   1.918       .  S
O213        C223   1.282       .  A
O214       Ni219   1.913       .  S
O214        C224   1.282       .  A
O215       Ni220   1.896       .  S
O215        C224   1.275       .  A
O216       Ni220   1.898       .  S
O216        C223   1.277       .  A
O217       Ni220   1.928       .  S
O217        C222   1.284       .  A
O218       Ni220   1.926       .  S
O218        C221   1.285       .  A
Ni219      Ni220   2.384       .  S
C221        C456   1.501       .  S
C222        C420   1.500       .  S
C223        C429   1.482       .  S
C224        C444   1.463       .  S
C225        C226   1.529       .  S
C225        C231   1.533       .  S
C225        C229   1.539       .  S
C225        C393   1.531       .  S
C226        H233   1.085       .  S
C226       C1027   1.365       .  D
C227        C228   1.556   1_556  S
C227       C1026   1.369       .  D
C227        C492   1.509       .  S
C228        C232   1.546       .  S
C228        C230   1.542   1_554  S
C228        H234   1.109       .  S
C229        H235   1.081   1_455  S
C229       C1030   1.357       .  D
C230       C1029   1.359       .  D
C230        C289   1.475   1_455  S
C231       H1036   1.086       .  S
C231       C1032   1.365       .  D
C232       C1031   1.362   1_554  D
C232        C405   1.481       .  S
H236       C1031   1.086   1_554  S
O237       Ni245   1.922       .  S
O237        C247   1.282       .  A
O238       Ni245   1.919       .  S
O238        C248   1.283       .  A
O239       Ni245   1.898       .  S
O239        C249   1.278       .  A
O240       Ni245   1.901       .  S
O240        C250   1.278       .  A
O241       Ni246   1.911       .  S
O241        C250   1.280       .  A
O242       Ni246   1.911       .  S
O242        C249   1.280       .  A
O243       Ni246   1.928       .  S
O243        C248   1.283       .  A
O244       Ni246   1.923       .  S
O244        C247   1.283       .  A
Ni245      Ni246   2.384       .  S
C247        C369   1.499       .  S
C248        C408   1.500       .  S
C249        C396   1.469       .  S
C250        C381   1.472       .  S
O251       Ni259   1.926   1_554  S
O251        C261   1.284       .  A
O252      Ni1059   1.915       .  S
O252        C262   1.282       .  A
O253      Ni1059   1.908       .  S
O253        C263   1.281       .  A
O254       Ni259   1.905   1_554  S
O254        C264   1.278       .  A
O255       Ni260   1.906   1_554  S
O255        C264   1.280       .  A
O256      Ni1060   1.910       .  S
O256        C263   1.279       .  A
O257      Ni1060   1.930       .  S
O257        C262   1.283       .  A
O258       Ni260   1.922   1_554  S
O258        C261   1.282       .  A
Ni259      O1052   1.924       .  S
Ni259      O1053   1.904       .  S
Ni259      Ni260   2.386       .  S
Ni260      O1056   1.909       .  S
Ni260      O1057   1.921       .  S
C261        C417   1.499       .  S
C262        C372   1.498       .  S
C263        C432   1.482       .  S
C264        C384   1.471       .  S
O265       Ni273   1.915       .  S
O265        C275   1.277   1_554  A
O266       Ni273   1.909   1_545  S
O266        C276   1.280       .  A
O267       Ni273   1.898       .  S
O267        C277   1.278       .  A
O268       Ni273   1.906   1_545  S
O268        C278   1.282       .  A
O269       Ni274   1.925   1_545  S
O269       C1078   1.280       .  A
O270       Ni274   1.918       .  S
O270       C1077   1.282       .  A
O271       Ni274   1.894   1_545  S
O271       C1076   1.277       .  A
O272       Ni274   1.909       .  S
O272       C1075   1.283       .  A
Ni273     Ni1074   2.388   1_554  S
Ni274     Ni1073   2.389       .  S
C275       O1072   1.283       .  A
C276       O1071   1.279   1_554  A
C276        C348   1.477       .  S
C277       O1070   1.281   1_554  A
C277        C360   1.477       .  S
C278       O1069   1.278   1_554  A
O279       Ni287   1.923       .  S
O279        C289   1.280   1_554  A
O280       Ni287   1.918       .  S
O280        C290   1.282       .  A
O281       Ni287   1.888       .  S
O281        C291   1.276       .  A
O282       Ni287   1.900       .  S
O282        C292   1.281       .  A
O283       Ni288   1.916       .  S
O283       C1092   1.277       .  A
O284       Ni288   1.910       .  S
O284       C1091   1.280       .  A
O285       Ni288   1.895       .  S
O285       C1090   1.278       .  A
O286       Ni288   1.907       .  S
O286       C1089   1.282       .  A
Ni287     Ni1088   2.387   1_554  S
Ni288     Ni1087   2.391       .  S
C289       O1086   1.281       .  A
C290       O1085   1.277   1_554  A
C290        C336   1.469       .  S
C291       O1084   1.283   1_554  A
C291        C345   1.476   1_655  S
C292       O1083   1.279   1_554  A
O293       Ni301   1.915       .  S
O293        C303   1.278       .  A
O294       Ni301   1.908   1_455  S
O294        C304   1.281   1_554  A
O295       Ni301   1.896       .  S
O295        C305   1.277       .  A
O296       Ni301   1.905   1_455  S
O296        C306   1.281   1_554  A
O297       Ni302   1.919   1_455  S
O297       C1106   1.279       .  A
O298       Ni302   1.917       .  S
O298       C1105   1.282       .  A
O299       Ni302   1.901       .  S
O299       C1104   1.278   1_655  A
O300       Ni302   1.913       .  S
O300       C1103   1.283       .  A
Ni301     Ni1102   2.389   1_554  S
Ni302     Ni1101   2.389       .  S
C303       O1100   1.283   1_554  A
C304       O1099   1.278       .  A
C304        C357   1.475       .  S
C305       O1098   1.282   1_554  A
C305        C321   1.472       .  S
C306       O1097   1.279       .  A
O307       Ni315   1.926       .  S
O307        C317   1.278       .  A
O308       Ni315   1.911       .  S
O308        C318   1.281       .  A
O309       Ni315   1.906       .  S
O309        C319   1.280       .  A
O310       Ni315   1.917       .  S
O310        C320   1.285   1_554  A
O311       Ni316   1.915       .  S
O311       C1120   1.278       .  A
O312       Ni316   1.906       .  S
O312       C1119   1.279       .  A
O313       Ni316   1.900       .  S
O313       C1118   1.278       .  A
O314       Ni316   1.908       .  S
O314       C1117   1.284       .  A
Ni315     Ni1116   2.390   1_554  S
Ni316     Ni1115   2.390       .  S
C317       O1114   1.285   1_554  A
C318       O1113   1.278   1_554  A
C318        C324   1.470       .  S
C319       O1112   1.278   1_554  A
C319        C333   1.470   1_565  S
C320       O1111   1.276       .  A
C321        C326   1.414       .  A
C321       C1122   1.403   1_554  A
C322        C323   1.397       .  A
C322       C1121   1.404       .  A
C322        H327   1.085       .  S
C323       C1124   1.413       .  A
C323        C330   1.445       .  S
C324        C325   1.401       .  A
C324       C1123   1.412   1_554  A
C325        C326   1.394       .  A
C325        H328   1.085       .  S
C326        C329   1.445       .  S
C329        N331   1.157       .  T
C330        N332   1.157       .  T
C333        C334   1.404       .  A
C333       C1138   1.412   1_554  A
C334        C335   1.397       .  A
C334        H339   1.085   1_545  S
C335        C336   1.410       .  A
C335        C342   1.444       .  S
C336       C1137   1.403   1_554  A
C337        C338   1.392       .  A
C337       C1136   1.402       .  A
C337        H340   1.085       .  S
C338       C1133   1.410       .  A
C338        C341   1.445       .  S
C341        N343   1.157       .  T
C342        N344   1.157       .  T
C345        C346   1.406       .  A
C345       C1150   1.411   1_554  A
C346        C347   1.393       .  A
C346        H351   1.085       .  S
C347        C348   1.413       .  A
C347        C354   1.445       .  S
C348       C1149   1.407   1_554  A
C349        C350   1.394       .  A
C349       C1148   1.404       .  A
C349        H352   1.085       .  S
C350       C1145   1.411       .  A
C350        C353   1.445       .  S
C353        N355   1.157   1_455  T
C354        N356   1.157       .  T
C357        C358   1.402   1_556  A
C357       C1162   1.415       .  A
C358        C359   1.392       .  A
C358        H363   1.085       .  S
C359        C360   1.414       .  A
C359        C366   1.445       .  S
C360       C1161   1.405   1_554  A
C361        C362   1.397       .  A
C361       C1160   1.402       .  A
C361        H364   1.085       .  S
C362       C1157   1.414       .  A
C362        C365   1.444       .  S
C365        N367   1.157       .  T
C366        N368   1.157       .  T
C369        C370   1.410       .  A
C369        C374   1.416       .  A
C370        C371   1.408       .  A
C370        H375   1.084       .  S
C371        C372   1.417       .  A
C371        C378   1.444       .  S
C372        C373   1.407       .  A
C373        C374   1.400       .  A
C373        H376   1.084       .  S
C374        C377   1.444       .  S
C377        N379   1.157       .  T
C378        N380   1.158   1_455  T
C381        C382   1.403       .  A
C381        C386   1.413       .  A
C382        C383   1.397       .  A
C382        H387   1.085       .  S
C383        C384   1.413       .  A
C383        C390   1.445       .  S
C384        C385   1.401       .  A
C385        C386   1.393       .  A
C385        H388   1.085       .  S
C386        C389   1.445       .  S
C389        N391   1.157   1_455  T
C390        N392   1.157       .  T
C393        C394   1.412       .  A
C393        C398   1.420       .  A
C394        C395   1.391       .  A
C394        H399   1.076       .  S
C395        C396   1.406       .  A
C395        C402   1.447       .  S
C396        C397   1.401       .  A
C397        C398   1.399       .  A
C397        H400   1.085       .  S
C398        C401   1.445       .  S
C401        N403   1.157       .  T
C402        N404   1.157   1_455  T
C405        C406   1.402       .  A
C405        C410   1.405       .  A
C406        C407   1.406       .  A
C406        H411   1.085       .  S
C407        C408   1.421       .  A
C407        C414   1.444       .  S
C408        C409   1.411       .  A
C409        C410   1.401       .  A
C409        H412   1.084       .  S
C410        C413   1.444   1_455  S
C413        N415   1.157       .  T
C414        N416   1.158       .  T
C417        C418   1.408       .  A
C417        C422   1.417       .  A
C418        C419   1.406       .  A
C418        H423   1.084       .  S
C419        C420   1.418       .  A
C419        C426   1.443       .  S
C420        C421   1.408       .  A
C421        C422   1.403       .  A
C421        H424   1.085       .  S
C422        C425   1.443       .  S
C425        N427   1.157   1_455  T
C426        N428   1.157       .  T
C429        C430   1.405       .  A
C429        C434   1.416       .  A
C430        C431   1.400       .  A
C430        H435   1.085       .  S
C431        C432   1.416       .  A
C431        C438   1.444       .  S
C432        C433   1.403       .  A
C433        C434   1.394       .  A
C433        H436   1.085       .  S
C434        C437   1.446       .  S
C437        N439   1.157       .  T
C438        N440   1.157   1_455  T
C441        C442   1.411       .  A
C441        C446   1.423       .  A
C442        C443   1.397       .  A
C442        H447   1.077       .  S
C443        C444   1.407       .  A
C443        C450   1.445       .  S
C444        C445   1.395       .  A
C445        C446   1.392       .  A
C445        H448   1.086       .  S
C446        C449   1.447       .  S
C449        N451   1.157       .  T
C450        N452   1.157       .  T
C453        C454   1.401       .  A
C453        C458   1.408       .  A
C454        C455   1.407       .  A
C454        H459   1.085       .  S
C455        C456   1.423       .  A
C455        C462   1.444       .  S
C456        C457   1.409       .  A
C457        C458   1.400       .  A
C457        H460   1.084       .  S
C458        C461   1.444       .  S
C461       N1263   1.157       .  T
C462        N464   1.158   1_455  T
N463       C1261   1.157       .  T
C465        C466   1.404       .  A
C465        C470   1.417       .  A
C466        C467   1.400       .  A
C466        H471   1.085       .  S
C467        C468   1.415       .  A
C467        C474   1.445       .  S
C468        C469   1.406       .  A
C469        C470   1.406       .  A
C469        H472   1.085       .  S
C470        C473   1.444       .  S
C473        N475   1.157       .  T
C474        N476   1.157       .  T
C477        C478   1.404       .  A
C477        C482   1.414       .  A
C478        C479   1.400       .  A
C478        H483   1.085       .  S
C479        C480   1.414       .  A
C479        C486   1.445       .  S
C480        C481   1.400       .  A
C481        C482   1.395       .  A
C481        H484   1.085       .  S
C482        C485   1.445       .  S
C485       N1287   1.157       .  T
C486        N488   1.158       .  T
N487       C1285   1.157       .  T
C489        C494   1.421       .  A
C489       C1290   1.403   1_554  A
C490        C491   1.405       .  A
C490       C1289   1.405       .  A
C490        H495   1.082       .  S
C491       C1292   1.420       .  A
C491        C498   1.444       .  S
C492        C493   1.404   1_556  A
C492       C1291   1.423       .  A
C493        C494   1.405       .  A
C493        H496   1.083       .  S
C494        C497   1.444       .  S
C497        N499   1.157       .  T
C498        N500   1.157       .  T
C501        C502   1.415       .  A
C501        C506   1.417       .  A
C502        C503   1.392       .  A
C502        H507   1.084       .  S
C503        C504   1.403       .  A
C503        C510   1.446       .  S
C504        C505   1.400       .  A
C505        C506   1.395       .  A
C505        H508   1.085       .  S
C506        C509   1.442       .  S
C509        N511   1.157       .  T
C510        N512   1.158       .  T
C513        C514   1.398       .  A
C513        C518   1.409       .  A
C514        C515   1.403       .  A
C514        H519   1.085       .  S
C515        C516   1.423       .  A
C515        C522   1.444       .  S
C516        C517   1.408       .  A
C517        C518   1.401       .  A
C517        H520   1.084       .  S
C518        C521   1.444       .  S
C521        N523   1.157       .  T
C522        N524   1.158       .  T
C525        C526   1.407       .  A
C525        C530   1.419       .  A
C526        C527   1.407       .  A
C526        H531   1.085       .  S
C527        C528   1.419       .  A
C527        C534   1.444       .  S
C528        C529   1.407       .  A
C529        C530   1.405       .  A
C529        H532   1.084       .  S
C530        C533   1.444       .  S
C533        N535   1.157       .  T
C534        N536   1.157   1_545  T
C537        C538   1.403       .  A
C537        C542   1.413       .  A
C538        C539   1.396       .  A
C538        H543   1.085       .  S
C539        C540   1.411       .  A
C539        C546   1.444       .  S
C540        C541   1.401       .  A
C541        C542   1.393       .  A
C541        H544   1.085       .  S
C542        C545   1.445       .  S
C545        N547   1.157       .  T
C546        N548   1.157       .  T
C549        C550   1.413       .  A
C549        C554   1.419       .  A
C550        C551   1.393       .  A
C550        H555   1.075   1_545  S
C551        C552   1.409       .  A
C551        C558   1.447   1_545  S
C552        C553   1.403       .  A
C553        C554   1.397       .  A
C553        H556   1.085       .  S
C554        C557   1.445       .  S
C557        N559   1.157       .  T
C558        N560   1.157       .  T
C561        C562   1.410       .  A
C561        C566   1.423       .  A
C562        C563   1.406       .  A
C562        H567   1.084       .  S
C563        C564   1.410       .  A
C563        C570   1.444       .  S
C564        C565   1.401       .  A
C565        C566   1.408       .  A
C565        H568   1.085       .  S
C566        C569   1.444   1_545  S
C569        N571   1.157       .  T
C570        N572   1.157       .  T
C573        C574   1.406       .  A
C573        C578   1.418       .  A
C574        C575   1.405       .  A
C574        H579   1.085       .  S
C575        C576   1.418       .  A
C575        C582   1.444       .  S
C576        C577   1.407       .  A
C577        C578   1.406       .  A
C577        H580   1.085       .  S
C578        C581   1.444       .  S
C581        N583   1.157       .  T
C582        N584   1.157       .  T
C585        C586   1.404       .  A
C585        C590   1.414       .  A
C586        C587   1.392       .  A
C586        H591   1.085       .  S
C587        C588   1.414       .  A
C587        C594   1.445       .  S
C588        C589   1.404       .  A
C589        C590   1.394       .  A
C589        H592   1.085       .  S
C590        C593   1.445       .  S
C593        N595   1.157       .  T
C594        N596   1.157       .  T
C597        C598   1.414   1_556  A
C597       C1402   1.412       .  A
C598        C599   1.406       .  A
C598        H603   1.084       .  S
C599        C600   1.414   1_554  A
C599        C606   1.442       .  S
C600       C1401   1.415       .  A
C601        C602   1.407       .  A
C601       C1400   1.417       .  A
C601        H604   1.083       .  S
C602       C1397   1.410       .  A
C602        C605   1.443       .  S
C605        N607   1.157       .  T
C606        N608   1.158       .  T
C609        C610   1.413       .  A
C609        C614   1.420       .  A
C610        C611   1.391       .  A
C610        H615   1.077       .  S
C611        C612   1.404       .  A
C611        C618   1.447       .  S
C612        C613   1.399       .  A
C613        C614   1.398       .  A
C613        H616   1.085       .  S
C614        C617   1.444       .  S
C617        N619   1.157       .  T
C618        N620   1.157       .  T
C621        C622   1.409       .  A
C621        C626   1.422       .  A
C622        C623   1.403       .  A
C622        H627   1.084       .  S
C623        C624   1.409       .  A
C623        C630   1.444       .  S
C624        C625   1.401       .  A
C625        C626   1.407       .  A
C625        H628   1.085       .  S
C626        C629   1.444       .  S
C629        N631   1.157       .  T
C630        N632   1.157       .  T
C633        C634   1.411       .  A
C633        C638   1.418       .  A
C634        C635   1.408       .  A
C634        H639   1.084       .  S
C635        C636   1.417       .  A
C635        C642   1.443       .  S
C636        C637   1.409       .  A
C637        C638   1.404       .  A
C637        H640   1.084       .  S
C638        C641   1.444       .  S
C641        N643   1.157       .  T
C642        N644   1.157       .  T
C645        C646   1.401       .  A
C645        C650   1.415       .  A
C646        C647   1.395       .  A
C646        H651   1.085       .  S
C647        C648   1.415       .  A
C647        C654   1.445       .  S
C648        C649   1.402       .  A
C649        C650   1.395       .  A
C649        H652   1.085       .  S
C650        C653   1.446       .  S
C653        N655   1.157       .  T
C654        N656   1.157       .  T
C657        C658   1.393       .  A
C657        C662   1.404       .  A
C658        C659   1.393       .  A
C658        H663   1.085       .  S
C659        C660   1.425       .  A
C659        C666   1.447       .  S
C660        C661   1.409       .  A
C661        C662   1.393       .  A
C661        H664   1.076       .  S
C662        C665   1.446       .  S
C665        N667   1.157       .  T
C666        N668   1.157       .  T
C669        C670   1.399       .  A
C669        C674   1.412       .  A
C670        C671   1.407       .  A
C670        H675   1.085       .  S
C671        C672   1.424       .  A
C671        C678   1.444       .  S
C672        C673   1.407       .  A
C673        C674   1.404       .  A
C673        H676   1.084       .  S
C674        C677   1.444       .  S
C677        N679   1.157       .  T
C678        N680   1.157       .  T
C681        C682   1.406       .  A
C681        C686   1.419       .  A
C682        C683   1.402       .  A
C682        H687   1.084       .  S
C683        C684   1.420       .  A
C683        C690   1.445       .  S
C684        C685   1.408       .  A
C685        C686   1.406       .  A
C685        H688   1.084       .  S
C686        C689   1.444       .  S
C689        N691   1.157       .  T
C690        N692   1.158       .  T
C693        C694   1.403       .  A
C693        C698   1.411       .  A
C694        C695   1.395       .  A
C694        H699   1.085       .  S
C695        C696   1.410       .  A
C695        C702   1.445       .  S
C696        C697   1.402       .  A
C697        C698   1.394       .  A
C697        H700   1.085       .  S
C698        C701   1.445       .  S
C701        N703   1.157       .  T
C702        N704   1.157       .  T
C705        C706   1.408       .  A
C705       C1510   1.406   1_554  A
C706        C707   1.415       .  A
C706        H711   1.085       .  S
C707        C708   1.418       .  A
C707        C714   1.440       .  S
C708       C1509   1.411   1_554  A
C709        C710   1.401       .  A
C709       C1508   1.415       .  A
C709        H712   1.082       .  S
C710       C1505   1.404       .  A
C710        C713   1.442       .  S
C713        N715   1.156       .  T
C714        N716   1.157       .  T
C717        C718   1.410       .  A
C717        C722   1.417       .  A
C718        C719   1.389       .  A
C718        H723   1.080       .  S
C719        C720   1.407       .  A
C719        C726   1.446       .  S
C720        C721   1.404       .  A
C721        C722   1.401       .  A
C721        H724   1.085       .  S
C722        C725   1.445       .  S
C725        N727   1.157       .  T
C726        N728   1.157       .  T
C729        C730   1.411       .  A
C729        C734   1.416       .  A
C730        C731   1.407       .  A
C730        H735   1.084       .  S
C731        C732   1.411       .  A
C731        C738   1.442       .  S
C732        C733   1.405       .  A
C733        C734   1.402       .  A
C733        H736   1.084       .  S
C734        C737   1.444       .  S
C737        N739   1.157       .  T
C738       N1540   1.157       .  T
N740       C1538   1.156       .  T
C741        C742   1.409       .  A
C741        C746   1.420       .  A
C742        C743   1.407       .  A
C742        H747   1.084       .  S
C743        C744   1.420       .  A
C743        C750   1.444       .  S
C744        C745   1.408       .  A
C745        C746   1.407       .  A
C745        H748   1.084       .  S
C746        C749   1.444       .  S
C749        N751   1.157       .  T
C750        N752   1.158       .  T
C753        C754   1.403       .  A
C753        C758   1.415       .  A
C754        C755   1.397       .  A
C754        H759   1.085       .  S
C755        C756   1.417       .  A
C755        C762   1.445       .  S
C756        C757   1.405       .  A
C757        C758   1.397       .  A
C757        H760   1.085       .  S
C758        C761   1.444       .  S
C761        N763   1.157       .  T
C762        N764   1.157       .  T
C765        C766   1.412   1_556  A
C765       C1570   1.410       .  A
C766        C767   1.405       .  A
C766        H771   1.084       .  S
C767        C768   1.413       .  A
C767        C774   1.441       .  S
C768       C1569   1.417   1_554  A
C769        C770   1.404       .  A
C769       C1568   1.416       .  A
C769        H772   1.083       .  S
C770       C1565   1.409       .  A
C770        C773   1.443       .  S
C773        N775   1.157       .  T
C774        N776   1.157       .  T
C777        C778   1.395       .  A
C777        C782   1.404       .  A
C778        C779   1.398       .  A
C778        H783   1.085       .  S
C779        C780   1.425       .  A
C779        C786   1.446       .  S
C780        C781   1.408       .  A
C781        C782   1.393       .  A
C781        H784   1.076       .  S
C782        C785   1.443       .  S
C785        N787   1.156       .  T
C786        N788   1.157       .  T
C789        C790   1.402       .  A
C789        C794   1.409       .  A
C790        C791   1.406       .  A
C790        H795   1.085       .  S
C791        C792   1.422       .  A
C791        C798   1.443       .  S
C792        C793   1.413       .  A
C793        C794   1.408       .  A
C793        H796   1.084       .  S
C794        C797   1.444       .  S
C797       N1599   1.157       .  T
C798        N800   1.157       .  T
N799       C1597   1.157       .  T
C801        C802   1.526       .  S
C801        C807   1.536   1_556  S
C801        C805   1.531       .  S
C801       C1580   1.523       .  S
C802        H809   1.086       .  S
C803        C804   1.564       .  S
C803       C1568   1.515       .  S
C804        C808   1.551       .  S
C804        C806   1.548       .  S
C804        H810   1.107       .  S
C805        H811   1.087       .  S
C806       C1103   1.474       .  S
C808       C1589   1.487       .  S
O813       Ni821   1.928       .  S
O813        C823   1.283       .  A
O814       Ni821   1.928       .  S
O814        C824   1.284       .  A
O815       Ni821   1.906       .  S
O815        C825   1.278       .  A
O816       Ni821   1.909       .  S
O816        C826   1.280       .  A
O817       Ni822   1.899       .  S
O817        C826   1.278       .  A
O818       Ni822   1.897       .  S
O818        C825   1.276       .  A
O819       Ni822   1.921       .  S
O819        C824   1.282       .  A
O820       Ni822   1.919       .  S
O820        C823   1.283       .  A
Ni821      Ni822   2.386       .  S
C823       C1541   1.498       .  S
C824       C1592   1.503       .  S
C825       C1577   1.452       .  S
C826       C1556   1.472       .  S
C827        C828   1.528       .  S
C827        C833   1.535       .  S
C827        C831   1.533       .  S
C827       C1517   1.526       .  S
C828        H835   1.087       .  S
C828        C829   1.363       .  D
C829       C1505   1.495       .  S
C830        C834   1.557       .  S
C830        H836   1.110       .  S
C831        H837   1.084       .  S
C831        C832   1.355       .  D
C832       C1092   1.473       .  S
C833        H838   1.085       .  S
C834       C1532   1.497       .  S
O839       Ni847   1.923       .  S
O839        C849   1.283       .  A
O840       Ni847   1.928       .  S
O840        C850   1.283       .  A
O841       Ni847   1.912       .  S
O841        C851   1.280       .  A
O842       Ni847   1.909       .  S
O842        C852   1.281       .  A
O843       Ni848   1.898       .  S
O843        C852   1.276       .  A
O844       Ni848   1.896       .  S
O844        C851   1.278       .  A
O845       Ni848   1.928       .  S
O845        C850   1.285       .  A
O846       Ni848   1.928       .  S
O846        C849   1.283       .  A
Ni847      Ni848   2.384       .  S
C849       C1529   1.500       .  S
C850       C1484   1.505       .  S
C851       C1493   1.478       .  S
C852       C1520   1.465       .  S
O853        C863   1.282       .  A
O854       Ni861   1.924       .  S
O854        C864   1.282       .  A
O855       Ni861   1.908       .  S
O855        C865   1.281       .  A
O856        C866   1.280       .  A
O857        C866   1.279       .  A
O858       Ni862   1.900       .  S
O858        C865   1.277       .  A
O859       Ni862   1.934       .  S
O859        C864   1.286       .  A
O860        C863   1.283       .  A
Ni861      Ni862   2.384       .  S
C863       C1544   1.497       .  S
C864       C1481   1.506       .  S
C865       C1553   1.472       .  S
C866       C1496   1.479       .  S
C867        C868   1.525       .  S
C867        C873   1.538       .  S
C867        C871   1.530       .  S
C867       C1460   1.521       .  S
C868        H875   1.086       .  S
C868        C869   1.365       .  D
C869       C1565   1.506       .  S
C870        C874   1.553       .  S
C870        H876   1.108       .  S
C871        H877   1.087       .  S
C871        C872   1.356       .  D
C872       C1120   1.472       .  S
C873        H878   1.083       .  S
C874       C1469   1.490       .  S
O879       Ni887   1.916       .  S
O879        C889   1.282       .  A
O880       Ni887   1.911       .  S
O880        C890   1.279       .  A
O881       Ni887   1.902       .  S
O881        C891   1.279       .  A
O882       Ni887   1.907       .  S
O882        C892   1.280       .  A
O883       Ni888   1.903       .  S
O883        C892   1.278       .  A
O884       Ni888   1.897       .  S
O884        C891   1.276       .  A
O885       Ni888   1.939       .  S
O885        C890   1.287       .  A
O886       Ni888   1.937       .  S
O886        C889   1.286       .  A
Ni887      Ni888   2.386       .  S
C889       C1436   1.503       .  S
C890       C1472   1.500       .  S
C891       C1457   1.453       .  S
C892       C1445   1.471       .  S
C893        C894   1.532       .  S
C893        C899   1.533   1_556  S
C893        C897   1.538       .  S
C893       C1409   1.535       .  S
C894        H901   1.086       .  S
C895        C896   1.565       .  S
C895       C1400   1.517       .  S
C896        C900   1.556       .  S
C896        C898   1.548       .  S
C896        H902   1.106       .  S
C897        H903   1.080       .  S
C898       C1075   1.477       .  S
C900       C1424   1.491       .  S
O905       Ni913   1.922       .  S
O905        C915   1.282       .  A
O906       Ni913   1.920       .  S
O906        C916   1.281       .  A
O907       Ni913   1.908       .  S
O907        C917   1.281       .  A
O908       Ni913   1.906       .  S
O908        C918   1.280       .  A
O909       Ni914   1.910       .  S
O909        C918   1.279       .  A
O910       Ni914   1.911       .  S
O910        C917   1.279       .  A
O911       Ni914   1.933       .  S
O911        C916   1.285       .  A
O912       Ni914   1.939       .  S
O912        C915   1.287       .  A
Ni913      Ni914   2.382       .  S
C915       C1421   1.508       .  S
C916       C1373   1.501       .  S
C917       C1385   1.481       .  S
C918       C1412   1.472       .  S
O919       Ni927   1.924       .  S
O919        C929   1.283       .  A
O920        C930   1.282       .  A
O921        C931   1.280       .  A
O922       Ni927   1.914       .  S
O922        C932   1.282       .  A
O923       Ni928   1.903       .  S
O923        C932   1.278       .  A
O924        C931   1.277       .  A
O925        C930   1.284       .  A
O926       Ni928   1.927       .  S
O926        C929   1.284       .  A
Ni927      Ni928   2.383       .  S
C929       C1433   1.503       .  S
C930       C1376   1.501       .  S
C931       C1448   1.469       .  S
C932       C1388   1.482       .  S
C933        C934   1.532       .  S
C933        C939   1.531   1_556  S
C933        C937   1.531       .  S
C933       C1349   1.535       .  S
C934        H941   1.086       .  S
C935        C936   1.567       .  S
C935       C1508   1.523       .  S
C936        C940   1.550       .  S
C936        C938   1.556       .  S
C936        H942   1.104       .  S
C937        H943   1.082   1_545  S
C938       C1117   1.480   1_545  S
C940       C1364   1.491       .  S
O945       Ni953   1.932       .  S
O945        C955   1.284       .  A
O946       Ni953   1.930       .  S
O946        C956   1.283       .  A
O947       Ni953   1.907       .  S
O947        C957   1.280       .  A
O948       Ni953   1.904       .  S
O948        C958   1.279       .  A
O949       Ni954   1.911       .  S
O949        C958   1.280       .  A
O950       Ni954   1.910       .  S
O950        C957   1.280       .  A
O951       Ni954   1.925       .  S
O951        C956   1.284       .  A
O952       Ni954   1.927       .  S
O952        C955   1.284       .  A
Ni953      Ni954   2.382       .  S
C955       C1361   1.504       .  S
C956       C1328   1.505       .  S
C957       C1340   1.476       .  S
C958       C1352   1.478       .  S
C959        C960   1.524       .  S
C959        C965   1.531       .  S
C959        C963   1.533       .  S
C959       C1301   1.523       .  S
C960        H967   1.082       .  S
C960        C961   1.368       .  D
C961       C1289   1.517       .  S
C962        C966   1.549       .  S
C962        H968   1.109       .  S
C963        H969   1.087       .  S
C963        C964   1.351       .  D
C964       C1078   1.473       .  S
C965        H970   1.084       .  S
C966       C1313   1.485       .  S
O971       Ni979   1.909       .  S
O971        C981   1.279       .  A
O972       Ni979   1.908       .  S
O972        C982   1.278       .  A
O973       Ni979   1.903       .  S
O973        C983   1.280       .  A
O974       Ni979   1.907       .  S
O974        C984   1.282       .  A
O975       Ni980   1.900       .  S
O975        C984   1.276       .  A
O976       Ni980   1.895       .  S
O976        C983   1.276       .  A
O977       Ni980   1.943       .  S
O977        C982   1.288       .  A
O978       Ni980   1.939       .  S
O978        C981   1.287       .  A
Ni979      Ni980   2.384       .  S
C981       C1268   1.497       .  S
C982       C1316   1.502       .  S
C983       C1304   1.457       .  S
C984       C1280   1.480       .  S
O985        C995   1.282       .  A
O986       Ni993   1.922       .  S
O986        C996   1.282       .  A
O987       Ni993   1.913       .  S
O987        C997   1.281       .  A
O988        C998   1.282       .  A
O989        C998   1.276       .  A
O990       Ni994   1.907       .  S
O990        C997   1.279       .  A
O991       Ni994   1.930       .  S
O991        C996   1.285       .  A
O992        C995   1.284       .  A
Ni993      Ni994   2.383       .  S
C995       C1325   1.504       .  S
C996       C1265   1.499       .  S
C997       C1337   1.478       .  S
C998       C1277   1.481       .  S
C999       C1000   1.540       .  S
C999       C1005   1.529       .  S
C999       C1003   1.529       .  S
C999       C1241   1.527       .  S
C1000      H1007   1.080       .  S
C1000      C1001   1.371       .  D
C1001      C1397   1.510       .  S
C1002      C1006   1.549       .  S
C1002      H1008   1.108       .  S
C1003      H1009   1.087       .  S
C1003      C1004   1.353       .  D
C1004      C1106   1.471       .  S
C1005      H1010   1.087       .  S
C1006      C1253   1.483       .  S
O1011     Ni1019   1.919       .  S
O1011      C1021   1.281       .  A
O1012     Ni1019   1.916       .  S
O1012      C1022   1.281       .  A
O1013     Ni1019   1.910       .  S
O1013      C1023   1.280       .  A
O1014     Ni1019   1.906       .  S
O1014      C1024   1.280       .  A
O1015     Ni1020   1.901       .  S
O1015      C1024   1.277       .  A
O1016     Ni1020   1.904       .  S
O1016      C1023   1.279       .  A
O1017     Ni1020   1.928       .  S
O1017      C1022   1.284       .  A
O1018     Ni1020   1.930       .  S
O1018      C1021   1.285       .  A
Ni1019    Ni1020   2.386       .  S
C1021      C1256   1.502       .  S
C1022      C1220   1.488       .  S
C1023      C1229   1.474       .  S
C1024      C1244   1.466       .  S
C1025      C1026   1.531       .  S
C1025      C1031   1.532       .  S
C1025      C1029   1.543       .  S
C1025      C1193   1.534       .  S
C1026      H1033   1.084       .  S
C1027      C1028   1.556       .  S
C1027      C1292   1.505       .  S
C1028      C1032   1.550       .  S
C1028      C1030   1.544       .  S
C1028      H1034   1.110       .  S
C1029      H1035   1.082   1_455  S
C1030      C1089   1.471   1_455  S
C1032      C1205   1.486       .  S
O1037     Ni1045   1.924       .  S
O1037      C1047   1.283       .  A
O1038     Ni1045   1.924       .  S
O1038      C1048   1.283       .  A
O1039     Ni1045   1.906       .  S
O1039      C1049   1.280       .  A
O1040     Ni1045   1.910       .  S
O1040      C1050   1.280       .  A
O1041     Ni1046   1.912       .  S
O1041      C1050   1.281       .  A
O1042     Ni1046   1.910       .  S
O1042      C1049   1.279       .  A
O1043     Ni1046   1.928       .  S
O1043      C1048   1.284       .  A
O1044     Ni1046   1.924       .  S
O1044      C1047   1.283       .  A
Ni1045    Ni1046   2.385       .  S
C1047      C1169   1.493       .  S
C1048      C1208   1.502       .  S
C1049      C1196   1.470       .  S
C1050      C1181   1.480       .  S
O1051     Ni1059   1.916       .  S
O1051      C1061   1.281       .  A
O1052      C1062   1.283       .  A
O1053      C1063   1.280       .  A
O1054     Ni1059   1.911       .  S
O1054      C1064   1.280       .  A
O1055     Ni1060   1.908       .  S
O1055      C1064   1.280       .  A
O1056      C1063   1.279       .  A
O1057      C1062   1.282       .  A
O1058     Ni1060   1.925       .  S
O1058      C1061   1.284       .  A
Ni1059    Ni1060   2.384       .  S
C1061      C1217   1.490       .  S
C1062      C1172   1.492       .  S
C1063      C1232   1.474       .  S
C1064      C1184   1.479       .  S
O1065     Ni1073   1.924       .  S
O1065      C1075   1.279       .  A
O1066     Ni1073   1.912   1_545  S
O1066      C1076   1.281       .  A
O1067     Ni1073   1.893       .  S
O1067      C1077   1.276       .  A
O1068     Ni1073   1.904   1_545  S
O1068      C1078   1.281       .  A
O1069     Ni1074   1.918   1_545  S
O1070     Ni1074   1.913       .  S
O1071     Ni1074   1.900   1_545  S
O1072     Ni1074   1.911       .  S
C1076      C1148   1.469       .  S
C1077      C1160   1.471       .  S
O1079     Ni1087   1.917       .  S
O1079      C1089   1.278       .  A
O1080     Ni1087   1.911       .  S
O1080      C1090   1.280       .  A
O1081     Ni1087   1.895       .  S
O1081      C1091   1.278       .  A
O1082     Ni1087   1.906       .  S
O1082      C1092   1.283       .  A
O1083     Ni1088   1.925       .  S
O1084     Ni1088   1.918       .  S
O1085     Ni1088   1.890       .  S
O1086     Ni1088   1.909       .  S
C1090      C1136   1.464       .  S
C1091      C1145   1.468   1_655  S
O1093     Ni1101   1.920       .  S
O1093      C1103   1.279       .  A
O1094     Ni1101   1.912   1_455  S
O1094      C1104   1.281       .  A
O1095     Ni1101   1.896       .  S
O1095      C1105   1.277       .  A
O1096     Ni1101   1.907   1_455  S
O1096      C1106   1.282       .  A
O1097     Ni1102   1.917   1_455  S
O1098     Ni1102   1.912       .  S
O1099     Ni1102   1.904   1_455  S
O1100     Ni1102   1.915       .  S
C1104      C1157   1.469       .  S
C1105      C1121   1.475       .  S
O1107     Ni1115   1.927       .  S
O1107      C1117   1.278       .  A
O1108     Ni1115   1.912       .  S
O1108      C1118   1.282       .  A
O1109     Ni1115   1.901       .  S
O1109      C1119   1.278       .  A
O1110     Ni1115   1.914       .  S
O1110      C1120   1.284       .  A
O1111     Ni1116   1.910       .  S
O1112     Ni1116   1.900       .  S
O1113     Ni1116   1.900       .  S
O1114     Ni1116   1.910       .  S
C1118      C1124   1.471       .  S
C1119      C1133   1.465   1_565  S
C1121      C1126   1.415       .  A
C1122      C1123   1.395       .  A
C1122      H1127   1.085       .  S
C1123      C1130   1.444       .  S
C1124      C1125   1.400       .  A
C1125      C1126   1.393       .  A
C1125      H1128   1.085       .  S
C1126      C1129   1.445       .  S
C1129      N1131   1.157       .  T
C1130      N1132   1.157       .  T
C1133      C1134   1.403       .  A
C1134      C1135   1.396       .  A
C1134      H1139   1.085   1_545  S
C1135      C1136   1.410       .  A
C1135      C1142   1.444       .  S
C1137      C1138   1.391       .  A
C1137      H1140   1.085       .  S
C1138      C1141   1.446       .  S
C1141      N1143   1.157       .  T
C1142      N1144   1.157       .  T
C1145      C1146   1.404       .  A
C1146      C1147   1.393       .  A
C1146      H1151   1.085       .  S
C1147      C1148   1.411       .  A
C1147      C1154   1.444       .  S
C1149      C1150   1.395       .  A
C1149      H1152   1.085       .  S
C1150      C1153   1.444       .  S
C1153      N1155   1.157       .  T
C1154      N1156   1.157       .  T
C1157      C1158   1.400       .  A
C1158      C1159   1.393       .  A
C1158      H1163   1.085       .  S
C1159      C1160   1.415       .  A
C1159      C1166   1.445       .  S
C1161      C1162   1.397       .  A
C1161      H1164   1.085       .  S
C1162      C1165   1.445       .  S
C1165      N1167   1.158       .  T
C1166      N1168   1.157       .  T
C1169      C1170   1.406       .  A
C1169      C1174   1.416       .  A
C1170      C1171   1.403       .  A
C1170      H1175   1.085       .  S
C1171      C1172   1.416       .  A
C1171      C1178   1.444       .  S
C1172      C1173   1.406       .  A
C1173      C1174   1.405       .  A
C1173      H1176   1.085       .  S
C1174      C1177   1.444       .  S
C1177      N1179   1.157       .  T
C1178      N1180   1.157   1_455  T
C1181      C1182   1.404       .  A
C1181      C1186   1.414       .  A
C1182      C1183   1.398       .  A
C1182      H1187   1.085       .  S
C1183      C1184   1.414       .  A
C1183      C1190   1.445       .  S
C1184      C1185   1.404       .  A
C1185      C1186   1.397       .  A
C1185      H1188   1.085       .  S
C1186      C1189   1.445       .  S
C1189      N1191   1.157   1_455  T
C1190      N1192   1.157       .  T
C1193      C1194   1.413       .  A
C1193      C1198   1.423       .  A
C1194      C1195   1.394       .  A
C1194      H1199   1.078       .  S
C1195      C1196   1.405       .  A
C1195      C1202   1.446       .  S
C1196      C1197   1.400       .  A
C1197      C1198   1.400       .  A
C1197      H1200   1.085       .  S
C1198      C1201   1.445       .  S
C1201      N1203   1.157       .  T
C1202      N1204   1.157   1_455  T
C1205      C1206   1.400       .  A
C1205      C1210   1.409       .  A
C1206      C1207   1.407       .  A
C1206      H1211   1.085       .  S
C1207      C1208   1.421       .  A
C1207      C1214   1.443       .  S
C1208      C1209   1.410       .  A
C1209      C1210   1.404       .  A
C1209      H1212   1.084       .  S
C1210      C1213   1.444   1_455  S
C1213      N1215   1.157       .  T
C1214      N1216   1.157       .  T
C1217      C1218   1.407       .  A
C1217      C1222   1.414       .  A
C1218      C1219   1.404       .  A
C1218      H1223   1.085       .  S
C1219      C1220   1.414       .  A
C1219      C1226   1.444       .  S
C1220      C1221   1.405       .  A
C1221      C1222   1.402       .  A
C1221      H1224   1.085       .  S
C1222      C1225   1.444       .  S
C1225      N1227   1.157       .  T
C1226      N1228   1.157       .  T
C1229      C1230   1.405       .  A
C1229      C1234   1.413       .  A
C1230      C1231   1.400       .  A
C1230      H1235   1.085       .  S
C1231      C1232   1.414       .  A
C1231      C1238   1.445       .  S
C1232      C1233   1.402       .  A
C1233      C1234   1.392       .  A
C1233      H1236   1.085       .  S
C1234      C1237   1.445       .  S
C1237      N1239   1.157       .  T
C1238      N1240   1.157   1_455  T
C1241      C1242   1.411       .  A
C1241      C1246   1.423       .  A
C1242      C1243   1.398       .  A
C1242      H1247   1.077       .  S
C1243      C1244   1.407       .  A
C1243      C1250   1.445       .  S
C1244      C1245   1.397       .  A
C1245      C1246   1.391       .  A
C1245      H1248   1.086       .  S
C1246      C1249   1.447       .  S
C1249      N1251   1.157       .  T
C1250      N1252   1.157       .  T
C1253      C1254   1.399       .  A
C1253      C1258   1.408       .  A
C1254      C1255   1.404       .  A
C1254      H1259   1.085       .  S
C1255      C1256   1.423       .  A
C1255      C1262   1.444       .  S
C1256      C1257   1.411       .  A
C1257      C1258   1.405       .  A
C1257      H1260   1.084       .  S
C1258      C1261   1.444       .  S
C1262      N1264   1.157       .  T
C1265      C1266   1.406       .  A
C1265      C1270   1.419       .  A
C1266      C1267   1.404       .  A
C1266      H1271   1.085       .  S
C1267      C1268   1.420       .  A
C1267      C1274   1.445       .  S
C1268      C1269   1.404       .  A
C1269      C1270   1.406       .  A
C1269      H1272   1.085       .  S
C1270      C1273   1.443       .  S
C1273      N1275   1.157       .  T
C1274      N1276   1.158       .  T
C1277      C1278   1.405       .  A
C1277      C1282   1.418       .  A
C1278      C1279   1.397       .  A
C1278      H1283   1.085       .  S
C1279      C1280   1.417       .  A
C1279      C1286   1.445       .  S
C1280      C1281   1.402       .  A
C1281      C1282   1.392       .  A
C1281      H1284   1.085       .  S
C1282      C1285   1.445       .  S
C1286      N1288   1.158       .  T
C1289      C1294   1.430       .  A
C1290      C1291   1.405       .  A
C1290      H1295   1.083       .  S
C1291      C1298   1.444       .  S
C1292      C1293   1.399       .  A
C1293      C1294   1.406       .  A
C1293      H1296   1.084       .  S
C1294      C1297   1.444       .  S
C1297      N1299   1.158       .  T
C1298      N1300   1.157       .  T
C1301      C1302   1.414       .  A
C1301      C1306   1.417       .  A
C1302      C1303   1.387       .  A
C1302      H1307   1.084       .  S
C1303      C1304   1.401       .  A
C1303      C1310   1.446       .  S
C1304      C1305   1.401       .  A
C1305      C1306   1.397       .  A
C1305      H1308   1.085       .  S
C1306      C1309   1.443       .  S
C1309      N1311   1.157       .  T
C1310      N1312   1.157       .  T
C1313      C1314   1.396       .  A
C1313      C1318   1.411       .  A
C1314      C1315   1.403       .  A
C1314      H1319   1.085       .  S
C1315      C1316   1.425       .  A
C1315      C1322   1.444       .  S
C1316      C1317   1.409       .  A
C1317      C1318   1.406       .  A
C1317      H1320   1.084       .  S
C1318      C1321   1.444       .  S
C1321      N1323   1.157       .  T
C1322      N1324   1.157       .  T
C1325      C1326   1.409       .  A
C1325      C1330   1.419       .  A
C1326      C1327   1.408       .  A
C1326      H1331   1.084       .  S
C1327      C1328   1.419       .  A
C1327      C1334   1.444       .  S
C1328      C1329   1.408       .  A
C1329      C1330   1.404       .  A
C1329      H1332   1.084       .  S
C1330      C1333   1.444       .  S
C1333      N1335   1.157       .  T
C1334      N1336   1.157   1_545  T
C1337      C1338   1.404       .  A
C1337      C1342   1.415       .  A
C1338      C1339   1.397       .  A
C1338      H1343   1.085       .  S
C1339      C1340   1.412       .  A
C1339      C1346   1.444       .  S
C1340      C1341   1.404       .  A
C1341      C1342   1.397       .  A
C1341      H1344   1.085       .  S
C1342      C1345   1.445       .  S
C1345      N1347   1.158       .  T
C1346      N1348   1.157       .  T
C1349      C1350   1.412       .  A
C1349      C1354   1.421       .  A
C1350      C1351   1.392       .  A
C1350      H1355   1.079   1_545  S
C1351      C1352   1.410       .  A
C1351      C1358   1.447   1_545  S
C1352      C1353   1.402       .  A
C1353      C1354   1.398       .  A
C1353      H1356   1.086       .  S
C1354      C1357   1.445       .  S
C1357      N1359   1.157       .  T
C1358      N1360   1.157       .  T
C1361      C1362   1.410       .  A
C1361      C1366   1.421       .  A
C1362      C1363   1.405       .  A
C1362      H1367   1.084       .  S
C1363      C1364   1.410       .  A
C1363      C1370   1.444       .  S
C1364      C1365   1.402       .  A
C1365      C1366   1.408       .  A
C1365      H1368   1.085       .  S
C1366      C1369   1.443       .  S
C1369      N1371   1.157   1_545  T
C1370      N1372   1.157       .  T
C1373      C1374   1.407       .  A
C1373      C1378   1.419       .  A
C1374      C1375   1.406       .  A
C1374      H1379   1.084       .  S
C1375      C1376   1.419       .  A
C1375      C1382   1.444       .  S
C1376      C1377   1.407       .  A
C1377      C1378   1.405       .  A
C1377      H1380   1.085       .  S
C1378      C1381   1.444       .  S
C1381      N1383   1.157       .  T
C1382      N1384   1.157       .  T
C1385      C1386   1.404       .  A
C1385      C1390   1.415       .  A
C1386      C1387   1.396       .  A
C1386      H1391   1.085       .  S
C1387      C1388   1.416       .  A
C1387      C1394   1.445       .  S
C1388      C1389   1.405       .  A
C1389      C1390   1.398       .  A
C1389      H1392   1.085       .  S
C1390      C1393   1.445       .  S
C1393      N1395   1.157       .  T
C1394      N1396   1.157       .  T
C1397      C1398   1.413       .  A
C1398      C1399   1.407       .  A
C1398      H1403   1.084       .  S
C1399      C1400   1.414       .  A
C1399      C1406   1.442       .  S
C1401      C1402   1.407       .  A
C1401      H1404   1.084       .  S
C1402      C1405   1.442       .  S
C1405      N1407   1.157       .  T
C1406      N1408   1.158       .  T
C1409      C1410   1.414       .  A
C1409      C1414   1.421       .  A
C1410      C1411   1.392       .  A
C1410      H1415   1.075       .  S
C1411      C1412   1.406       .  A
C1411      C1418   1.446       .  S
C1412      C1413   1.402       .  A
C1413      C1414   1.400       .  A
C1413      H1416   1.085       .  S
C1414      C1417   1.445       .  S
C1417      N1419   1.157       .  T
C1418      N1420   1.157       .  T
C1421      C1422   1.410       .  A
C1421      C1426   1.424       .  A
C1422      C1423   1.407       .  A
C1422      H1427   1.084       .  S
C1423      C1424   1.410       .  A
C1423      C1430   1.444       .  S
C1424      C1425   1.400       .  A
C1425      C1426   1.408       .  A
C1425      H1428   1.085       .  S
C1426      C1429   1.444       .  S
C1429      N1431   1.157       .  T
C1430      N1432   1.157       .  T
C1433      C1434   1.410       .  A
C1433      C1438   1.417       .  A
C1434      C1435   1.407       .  A
C1434      H1439   1.084       .  S
C1435      C1436   1.417       .  A
C1435      C1442   1.443       .  S
C1436      C1437   1.409       .  A
C1437      C1438   1.404       .  A
C1437      H1440   1.084       .  S
C1438      C1441   1.445       .  S
C1441      N1443   1.158       .  T
C1442      N1444   1.157       .  T
C1445      C1446   1.403       .  A
C1445      C1450   1.413       .  A
C1446      C1447   1.394       .  A
C1446      H1451   1.085       .  S
C1447      C1448   1.413       .  A
C1447      C1454   1.445       .  S
C1448      C1449   1.402       .  A
C1449      C1450   1.394       .  A
C1449      H1452   1.085       .  S
C1450      C1453   1.445       .  S
C1453      N1455   1.157       .  T
C1454      N1456   1.157       .  T
C1457      C1458   1.394       .  A
C1457      C1462   1.404       .  A
C1458      C1459   1.392       .  A
C1458      H1463   1.086       .  S
C1459      C1460   1.423       .  A
C1459      C1466   1.446       .  S
C1460      C1461   1.409       .  A
C1461      C1462   1.393       .  A
C1461      H1464   1.079       .  S
C1462      C1465   1.445       .  S
C1465      N1467   1.157       .  T
C1466      N1468   1.157       .  T
C1469      C1470   1.399       .  A
C1469      C1474   1.414       .  A
C1470      C1471   1.406       .  A
C1470      H1475   1.085       .  S
C1471      C1472   1.424       .  A
C1471      C1478   1.444       .  S
C1472      C1473   1.406       .  A
C1473      C1474   1.403       .  A
C1473      H1476   1.084       .  S
C1474      C1477   1.445       .  S
C1477      N1479   1.157       .  T
C1478      N1480   1.157       .  T
C1481      C1482   1.409       .  A
C1481      C1486   1.420       .  A
C1482      C1483   1.409       .  A
C1482      H1487   1.084       .  S
C1483      C1484   1.420       .  A
C1483      C1490   1.444       .  S
C1484      C1485   1.407       .  A
C1485      C1486   1.404       .  A
C1485      H1488   1.084       .  S
C1486      C1489   1.444       .  S
C1489      N1491   1.157       .  T
C1490      N1492   1.157       .  T
C1493      C1494   1.405       .  A
C1493      C1498   1.413       .  A
C1494      C1495   1.393       .  A
C1494      H1499   1.085       .  S
C1495      C1496   1.414       .  A
C1495      C1502   1.445       .  S
C1496      C1497   1.407       .  A
C1497      C1498   1.397       .  A
C1497      H1500   1.085       .  S
C1498      C1501   1.445       .  S
C1501      N1503   1.158       .  T
C1502      N1504   1.157       .  T
C1505      C1506   1.407       .  A
C1506      C1507   1.415       .  A
C1506      H1511   1.085       .  S
C1507      C1508   1.422       .  A
C1507      C1514   1.440       .  S
C1509      C1510   1.399       .  A
C1509      H1512   1.084       .  S
C1510      C1513   1.443       .  S
C1513      N1515   1.157       .  T
C1514      N1516   1.157       .  T
C1517      C1518   1.411       .  A
C1517      C1522   1.417       .  A
C1518      C1519   1.391       .  A
C1518      H1523   1.082       .  S
C1519      C1520   1.405       .  A
C1519      C1526   1.446       .  S
C1520      C1521   1.402       .  A
C1521      C1522   1.397       .  A
C1521      H1524   1.085       .  S
C1522      C1525   1.444       .  S
C1525      N1527   1.157       .  T
C1526      N1528   1.157       .  T
C1529      C1530   1.407       .  A
C1529      C1534   1.418       .  A
C1530      C1531   1.404       .  A
C1530      H1535   1.085       .  S
C1531      C1532   1.412       .  A
C1531      C1538   1.440       .  S
C1532      C1533   1.407       .  A
C1533      C1534   1.406       .  A
C1533      H1536   1.084       .  S
C1534      C1537   1.444       .  S
C1537      N1539   1.157       .  T
C1541      C1542   1.408       .  A
C1541      C1546   1.418       .  A
C1542      C1543   1.404       .  A
C1542      H1547   1.084       .  S
C1543      C1544   1.417       .  A
C1543      C1550   1.445       .  S
C1544      C1545   1.407       .  A
C1545      C1546   1.403       .  A
C1545      H1548   1.085       .  S
C1546      C1549   1.444       .  S
C1549      N1551   1.157       .  T
C1550      N1552   1.158       .  T
C1553      C1554   1.403       .  A
C1553      C1558   1.414       .  A
C1554      C1555   1.394       .  A
C1554      H1559   1.085       .  S
C1555      C1556   1.413       .  A
C1555      C1562   1.445       .  S
C1556      C1557   1.403       .  A
C1557      C1558   1.395       .  A
C1557      H1560   1.085       .  S
C1558      C1561   1.445       .  S
C1561      N1563   1.157       .  T
C1562      N1564   1.157       .  T
C1565      C1566   1.413       .  A
C1566      C1567   1.408       .  A
C1566      H1571   1.084       .  S
C1567      C1568   1.414       .  A
C1567      C1574   1.442       .  S
C1569      C1570   1.406       .  A
C1569      H1572   1.084       .  S
C1570      C1573   1.443       .  S
C1573      N1575   1.158       .  T
C1574      N1576   1.158       .  T
C1577      C1578   1.393       .  A
C1577      C1582   1.404       .  A
C1578      C1579   1.393       .  A
C1578      H1583   1.085       .  S
C1579      C1580   1.424       .  A
C1579      C1586   1.446       .  S
C1580      C1581   1.410       .  A
C1581      C1582   1.394       .  A
C1581      H1584   1.078       .  S
C1582      C1585   1.446       .  S
C1585      N1587   1.157       .  T
C1586      N1588   1.157       .  T
C1589      C1590   1.402       .  A
C1589      C1594   1.409       .  A
C1590      C1591   1.404       .  A
C1590      H1595   1.085       .  S
C1591      C1592   1.421       .  A
C1591      C1598   1.444       .  S
C1592      C1593   1.411       .  A
C1593      C1594   1.407       .  A
C1593      H1596   1.084       .  S
C1594      C1597   1.444       .  S
C1598      N1600   1.158       .  T
