geometry optimzed in LAMMPS
_audit_creation_date              2020-11-30 
_audit_creation_method            'lammps2cif' 
_symmetry_space_group_name_H-M    'P1' 
_symmetry_Int_Tables_number       1 
_symmetry_cell_setting            triclinic 
loop_ 
_symmetry_equiv_pos_as_xyz 
  x,y,z 
_cell_length_a                    36.76480424 
_cell_length_b                    35.87762395490507 
_cell_length_c                    30.016110512440044 
_cell_angle_alpha                 89.4107827594889 
_cell_angle_beta                  90.1730190791465 
_cell_angle_gamma                 76.4062370081193 
loop_ 
_atom_site_label 
_atom_site_type_symbol 
_atom_site_fract_x 
_atom_site_fract_y 
_atom_site_fract_z 
_atom_site_charge 
N1          N  0.00087355  0.66552877  0.03029054    -0.02400
C2          C  0.99139246  0.69297541  0.06154662     0.00100
C3          C  0.45696982  0.69262901  0.07966846    -0.22700
C4          C  0.44504126  0.66356986  0.05941939    -0.22900
C5          C  0.47240298  0.64741260  0.02925811     0.00000
H6          H  0.44202597  0.71175008  0.10467118     0.13800
H7          H  0.41902857  0.65529418  0.06570379     0.13900
N8          N  0.07230703  0.19739858  0.97350312    -0.02400
C9          C  0.08322107  0.16167053  0.99161865     0.00100
C10         C  0.12027218  0.14566419  0.98109441    -0.22700
C11         C  0.13237171  0.17209466  0.95532420    -0.22900
C12         C  0.10238114  0.20321703  0.95102842     0.00000
H13         H  0.13703515  0.11800015  0.99168717     0.13800
H14         H  0.16021405  0.16932112  0.94207139     0.13900
Fe15       Fe  0.32717283  0.43805570  0.79950481     1.65800
Fe16       Fe  0.23257005  0.46586802  0.80025390     1.73200
Fe17       Fe  0.28065949  0.43900958  0.89750291     1.54400
O18         O  0.31688263  0.38537539  0.89517803    -0.80600
O19         O  0.20762630  0.50258912  0.85011274    -0.79000
O20         O  0.35349321  0.39137256  0.83800237    -0.83200
O21         O  0.34829959  0.47448093  0.83999167    -0.78000
O22         O  0.23572818  0.41372018  0.89528629    -0.79800
O23         O  0.24956454  0.51134992  0.77142767    -0.82500
C24         C  0.34710329  0.47761202  0.88219815     0.98200
C25         C  0.34622658  0.37367000  0.87234226     1.05700
O26         O  0.28009603  0.44763556  0.83267692    -1.11500
O27         O  0.25037379  0.43182232  0.74514585    -0.73900
O28         O  0.30952854  0.40050049  0.75768880    -0.77400
O29         O  0.32525732  0.46367786  0.90654340    -0.78100
C30         C  0.27907678  0.40558087  0.73597152     0.97100
O31         O  0.30848494  0.48322247  0.75491718    -0.76100
O32         O  0.21128266  0.42202260  0.82649888    -0.81300
C33         C  0.21616267  0.51018629  0.88944407     0.99800
C34         C  0.21303265  0.40785995  0.86564166     1.05700
O35         O  0.24516775  0.49139481  0.90948761    -0.76900
C36         C  0.27953658  0.51044923  0.75028501     1.04000
N37         N  0.29515647  0.74916265  0.53558190    -0.02400
C38         C  0.30216614  0.72691253  0.57287425     0.00100
C39         C  0.33514056  0.73031800  0.59283571    -0.22700
C40         C  0.34877629  0.75588511  0.56746345    -0.22900
C41         C  0.32395552  0.76680300  0.53251623     0.00000
H42         H  0.34851177  0.71472443  0.62185680     0.13800
H43         H  0.37440245  0.76503088  0.57333286     0.13900
N44         N  0.23434509  0.19365459  0.50298762    -0.02400
C45         C  0.22424250  0.22224932  0.53300133     0.00100
C46         C  0.18622516  0.22968497  0.54104431    -0.22700
C47         C  0.17232977  0.20464818  0.51559921    -0.22900
C48         C  0.20224883  0.18312127  0.49256102     0.00000
H49         H  0.17044167  0.25071473  0.56360295     0.13800
H50         H  0.14376708  0.20149531  0.51511747     0.13900
Fe51       Fe  0.47058877  0.97113854  0.28877792     1.65800
Fe52       Fe  0.06486625  0.94448911  0.29302808     1.73200
Fe53       Fe  0.01536387  0.97067303  0.38801966     1.54400
O54         O  0.47954649  0.02456837  0.38270008    -0.80600
O55         O  0.08981685  0.90873438  0.34486178    -0.79000
O56         O  0.44237579  0.01639560  0.32697758    -0.83200
O57         O  0.45042750  0.93297749  0.32860069    -0.78000
O58         O  0.06051501  0.99608125  0.38673067    -0.79800
O59         O  0.04921426  0.89825735  0.26490939    -0.82500
C60         C  0.44973816  0.93104561  0.37096195     0.98200
C61         C  0.44938492  0.03489213  0.36043919     1.05700
O62         O  0.01696943  0.96206707  0.32354669    -1.11500
O63         O  0.04682903  0.97726355  0.23649488    -0.73900
O64         O  0.48794923  0.00984906  0.24689071    -0.77400
O65         O  0.47004136  0.94631786  0.39598925    -0.78100
C66         C  0.01833670  0.00320591  0.22508875     0.97100
O67         O  0.99120299  0.92736777  0.24462655    -0.76100
O68         O  0.08425993  0.98970717  0.31793120    -0.81300
C69         C  0.08046663  0.89995910  0.38357814     0.99800
C70         C  0.08237763  0.00347051  0.35688007     1.05700
O71         O  0.05056677  0.91781135  0.40214372    -0.76900
C72         C  0.02022512  0.90022770  0.24114486     1.04000
C73         C  0.36106754  0.11197164  0.38760256     0.17000
C74         C  0.32403669  0.13355995  0.38919325    -0.32100
C75         C  0.31096330  0.15026458  0.42985632     0.21400
C76         C  0.33393371  0.14664585  0.46711635     0.03600
C77         C  0.37143229  0.12593133  0.46515841    -0.21800
C78         C  0.38428457  0.10826843  0.42468288     0.12700
S79         S  0.38018337  0.08509471  0.34328143    -0.05400
C80         C  0.41996532  0.06808672  0.37492385    -0.08900
C81         C  0.41839135  0.08345301  0.41740284    -0.25500
S82         S  0.31143634  0.16616548  0.51429293    -0.02700
C83         C  0.27059639  0.17859733  0.48352721    -0.16200
C84         C  0.27485348  0.16891509  0.43891943    -0.14200
H85         H  0.30560345  0.13553488  0.36061919     0.21200
H86         H  0.38921283  0.12212818  0.49445465     0.17300
H87         H  0.43992399  0.07485890  0.44262485     0.19800
H88         H  0.25238262  0.17406529  0.41463133     0.13100
C89         C  0.18008423  0.09198277  0.45051240     0.17000
C90         C  0.16668882  0.05860712  0.44969889    -0.32100
C91         C  0.14524122  0.05316308  0.41279898     0.21400
C92         C  0.13883607  0.07877494  0.37709486     0.03600
C93         C  0.15250632  0.11212006  0.37774033    -0.21800
C94         C  0.17256133  0.11844998  0.41568822     0.12700
S95         S  0.20156923  0.10637833  0.49537657    -0.05400
C96         C  0.19933537  0.14899058  0.46769003    -0.08900
C97         C  0.18347778  0.15142360  0.42552662    -0.25500
S98         S  0.11101694  0.06731840  0.33613776    -0.02700
C99         C  0.10688588  0.02869302  0.36858337    -0.16200
C100        C  0.12666877  0.02459897  0.40826627    -0.14200
H101        H  0.17104773  0.03878353  0.47773943     0.21200
H102        H  0.14617391  0.13310712  0.35092327     0.17300
H103        H  0.17752559  0.17706565  0.40482371     0.19800
H104        H  0.12683361  0.00225287  0.43286799     0.13100
C105        C  0.35778038  0.82298007  0.43943595     0.17000
C106        C  0.37745611  0.83309733  0.40298425    -0.32100
C107        C  0.39072663  0.86661450  0.40640174     0.21400
C108        C  0.38417460  0.88913624  0.44417870     0.03600
C109        C  0.36332335  0.87984831  0.47967613    -0.21800
C110        C  0.35057561  0.84620896  0.47653318     0.12700
S111        S  0.34523254  0.78031495  0.44556214    -0.05400
C112        C  0.32940370  0.79446973  0.49818408    -0.08900
C113        C  0.33399300  0.83022117  0.51000022    -0.25500
S114        S  0.40587600  0.92605164  0.44462304    -0.02700
C115        C  0.42378503  0.91150069  0.39309310    -0.16200
C116        C  0.41306262  0.87978867  0.37636588    -0.14200
H117        H  0.38387657  0.81463926  0.37437261     0.21200
H118        H  0.35894780  0.89701449  0.50948568     0.17300
H119        H  0.32848382  0.84234202  0.54287472     0.19800
H120        H  0.42245971  0.86618646  0.34507099     0.13100
C121        C  0.14477127  0.82958828  0.46393652     0.17000
C122        C  0.16473541  0.81211921  0.50161122    -0.32100
C123        C  0.20105101  0.78947672  0.49510112     0.21400
C124        C  0.21615928  0.78329408  0.45278857     0.03600
C125        C  0.19594416  0.80009384  0.41512999    -0.21800
C126        C  0.16031174  0.82392031  0.42181048     0.12700
S127        S  0.10243600  0.86201970  0.46521538    -0.05400
C128        C  0.10630522  0.86893143  0.40859949    -0.08900
C129        C  0.13837160  0.84624954  0.38998482    -0.25500
S130        S  0.26182862  0.75857106  0.45200895    -0.02700
C131        C  0.26131058  0.75797229  0.50935713    -0.16200
C132        C  0.22679355  0.77454019  0.52777923    -0.14200
H133        H  0.15333036  0.81772104  0.53472659     0.21200
H134        H  0.20834995  0.79657840  0.38231655     0.17300
H135        H  0.14617269  0.84743825  0.35532781     0.19800
H136        H  0.22181951  0.77848590  0.56311709     0.13100
C137        C  0.26111107  0.35124687  0.63236528     0.17000
C138        C  0.24739383  0.33988197  0.59248273    -0.32100
C139        C  0.25461510  0.30052629  0.58397461     0.21400
C140        C  0.27485803  0.27354922  0.61359496     0.03600
C141        C  0.28974454  0.28499838  0.65287283    -0.21800
C142        C  0.28225968  0.32445354  0.66158185     0.12700
S143        S  0.25137218  0.39723285  0.65106344    -0.05400
C144        C  0.27654758  0.38037132  0.69848390    -0.08900
C145        C  0.29181167  0.34117281  0.69940304    -0.25500
S146        S  0.27512104  0.22721963  0.60049133    -0.02700
C147        C  0.24821720  0.24445910  0.55428176    -0.16200
C148        C  0.23974056  0.28399801  0.54974776    -0.14200
H149        H  0.23023882  0.36069054  0.57011218     0.21200
H150        H  0.30483193  0.26405480  0.67663243     0.17300
H151        H  0.30742346  0.32560526  0.72715917     0.19800
H152        H  0.22050969  0.29995185  0.52509426     0.13100
C153        C  0.26116429  0.65551835  0.63723123     0.17000
C154        C  0.24661391  0.63736712  0.67238458    -0.32100
C155        C  0.26431061  0.59895602  0.68226099     0.21400
C156        C  0.29477596  0.57954338  0.65788856     0.03600
C157        C  0.30841271  0.59720571  0.62199313    -0.21800
C158        C  0.29103589  0.63551127  0.61243843     0.12700
S159        S  0.24855132  0.70358058  0.62490081    -0.05400
C160        C  0.28385575  0.69631869  0.58603336    -0.08900
C161        C  0.30355253  0.65853577  0.58257623    -0.25500
S162        S  0.31440223  0.53437543  0.67680358    -0.02700
C163        C  0.28098173  0.54114253  0.71785752    -0.16200
C164        C  0.25591974  0.57678844  0.71659857    -0.14200
H165        H  0.22377453  0.65297984  0.69247462     0.21200
H166        H  0.33265218  0.58225749  0.60356818     0.15300
H167        H  0.32866527  0.64925134  0.56293786     0.19800
H168        H  0.23332742  0.58616723  0.73996650     0.13100
C169        C  0.12815757  0.28399459  0.88531898     0.17000
C170        C  0.14596259  0.30423521  0.85567237    -0.32100
C171        C  0.15679012  0.33647972  0.87194047     0.21400
C172        C  0.14953828  0.34844365  0.91552334     0.03600
C173        C  0.13008616  0.32935053  0.94445201    -0.21800
C174        C  0.11992707  0.29668906  0.92847002     0.12700
S175        S  0.11989287  0.24008262  0.87492551    -0.05400
C176        C  0.10501170  0.23910039  0.92908142    -0.08900
C177        C  0.10576113  0.27136454  0.95346328    -0.25500
S178        S  0.16946029  0.38467366  0.93092803    -0.02700
C179        C  0.18746740  0.38389012  0.87802424    -0.16200
C180        C  0.17796747  0.35737830  0.84984047    -0.14200
H181        H  0.15328542  0.29385262  0.82238493     0.21200
H182        H  0.12526453  0.33808171  0.97876185     0.17300
H183        H  0.09999210  0.27425201  0.98877975     0.19800
H184        H  0.18789145  0.35217373  0.81602089     0.13100
C185        C  0.42884496  0.28784395  0.89171869     0.17000
C186        C  0.46119534  0.25855786  0.88654231    -0.32100
C187        C  0.48443329  0.24783242  0.92384600     0.21400
C188        C  0.47598578  0.26536517  0.96471743     0.03600
C189        C  0.44303959  0.29412273  0.97019487    -0.21800
C190        C  0.41969269  0.30489505  0.93272640     0.12700
S191        S  0.39966892  0.30789261  0.84912496    -0.05400
C192        C  0.37436676  0.33934832  0.88687803    -0.08900
C193        C  0.38794920  0.33413564  0.93028675    -0.25500
S194        S  0.50982530  0.25033974  0.00468636    -0.02700
C195        C  0.03470209  0.21933762  0.96611079    -0.16200
C196        C  0.01800317  0.22142425  0.92451077    -0.14200
H197        H  0.46861713  0.24560236  0.85442439     0.21200
H198        H  0.43651891  0.30831748  0.00180810     0.17300
H199        H  0.37687951  0.35261467  0.95777553     0.19800
H200        H  0.03053742  0.20530870  0.89590302     0.13100
C201        C  0.04066652  0.04599910  0.11454599     0.17000
C202        C  0.05712486  0.05243148  0.07419845    -0.32100
C203        C  0.05163094  0.09034209  0.05913986     0.21400
C204        C  0.03013986  0.12065022  0.08262044     0.03600
C205        C  0.51260077  0.11409418  0.12252696    -0.21800
C206        C  0.01863060  0.07602215  0.13811870     0.12700
S207        S  0.04825726  0.00258012  0.14062991    -0.05400
C208        C  0.02142492  0.02474048  0.18398807    -0.08900
C209        C  0.50685120  0.06380415  0.17799496    -0.25500
S210        S  0.03096092  0.16476582  0.06102430    -0.02700
C211        C  0.06086204  0.14195925  0.02035093    -0.16200
C212        C  0.06878081  0.10230187  0.02328819    -0.14200
H213        H  0.07502178  0.02905727  0.05643367     0.21200
H214        H  0.49652058  0.13770086  0.14160273     0.17300
H215        H  0.49047531  0.08244093  0.20244778     0.19800
H216        H  0.08813175  0.08311651  0.00193010     0.13100
C217        C  0.15025395  0.57701252  0.96838632     0.17000
C218        C  0.12871044  0.59224791  0.00523343    -0.32100
C219        C  0.09449739  0.61843708  0.99691945     0.21400
C220        C  0.08292191  0.63016463  0.95391522     0.03600
C221        C  0.10473627  0.61531476  0.91709474    -0.21800
C222        C  0.13823054  0.58793622  0.92533621     0.12700
S223        S  0.19035387  0.54164783  0.97134808    -0.05400
C224        C  0.19033402  0.54059951  0.91395898    -0.08900
C225        C  0.16111478  0.56708831  0.89390504    -0.25500
S226        S  0.03913183  0.65956805  0.95054349    -0.02700
C227        C  0.03578963  0.65438926  0.00731240    -0.16200
C228        C  0.06755017  0.63254008  0.02782988    -0.14200
H229        H  0.13728696  0.58257642  0.03874453     0.21200
H230        H  0.09505581  0.62320070  0.88344910     0.17300
H231        H  0.15596408  0.56975598  0.85835313     0.19800
H232        H  0.06964723  0.62513241  0.06293164     0.13100
C233        C  0.44754326  0.57869212  0.94495541     0.17000
C234        C  0.43238608  0.56423238  0.90773499    -0.32100
C235        C  0.41165049  0.53657427  0.91554034     0.21400
C236        C  0.40708331  0.52342951  0.95831743     0.03600
C237        C  0.42335853  0.53674660  0.99507289    -0.21800
C238        C  0.44326414  0.56484862  0.98741175     0.12700
S239        S  0.46726823  0.61731488  0.94408836    -0.05400
C240        C  0.46948060  0.61467220  0.00146283    -0.08900
C241        C  0.45634166  0.58483756  0.01967150    -0.25500
S242        S  0.37830480  0.49286514  0.96200767    -0.02700
C243        C  0.37220597  0.49745722  0.90518557    -0.16200
C244        C  0.39191730  0.52129788  0.88455495    -0.14200
H245        H  0.43476795  0.57560172  0.87461587     0.21200
H246        H  0.41888530  0.52720461  0.02850867     0.17300
H247        H  0.45309140  0.58042096  0.05504516     0.19800
H248        H  0.39085951  0.52802791  0.84926547     0.13100
C249        C  0.00543501  0.83650638  0.14479981     0.17000
C250        C  0.49051185  0.82044400  0.10902250    -0.32100
C251        C  0.00713646  0.78246991  0.09846811     0.21400
C252        C  0.03793483  0.76138665  0.12168180     0.03600
C253        C  0.05401465  0.77813620  0.15650150    -0.21800
C254        C  0.03663114  0.81607513  0.16793493     0.12700
S255        S  0.48573308  0.88029510  0.16587946    -0.05400
C256        C  0.01972305  0.87148134  0.20670515    -0.08900
C257        C  0.04540550  0.83639317  0.20340937    -0.25500
S258        S  0.04906560  0.71360759  0.10890854    -0.02700
C259        C  0.01140934  0.72251498  0.07276055    -0.16200
C260        C  0.49249503  0.76058823  0.06982595    -0.14200
H261        H  0.46545673  0.83607196  0.09200031     0.21200
H262        H  0.07735576  0.76158803  0.17569824     0.17300
H263        H  0.06834141  0.82590098  0.22642316     0.19800
H264        H  0.46637957  0.77082747  0.05188167     0.13100
N265        N  0.50087352  0.66552883  0.03029048    -0.02400
C266        C  0.49139246  0.69297543  0.06154662     0.00100
C267        C  0.95696980  0.69262901  0.07966844    -0.22700
C268        C  0.94504129  0.66356979  0.05941944    -0.22900
C269        C  0.97240303  0.64741251  0.02925821     0.00000
H270        H  0.94202596  0.71175007  0.10467103     0.13800
H271        H  0.91902857  0.65529410  0.06570383     0.13900
N272        N  0.57230698  0.19739857  0.97350311    -0.02400
C273        C  0.58322103  0.16167051  0.99161864     0.00100
C274        C  0.62027214  0.14566418  0.98109439    -0.22700
C275        C  0.63237167  0.17209465  0.95532418    -0.22900
C276        C  0.60238109  0.20321702  0.95102841     0.00000
H277        H  0.63703512  0.11800014  0.99168716     0.13800
H278        H  0.66021400  0.16932113  0.94207138     0.13900
Fe279      Fe  0.82717286  0.43805570  0.79950481     1.65800
Fe280      Fe  0.73257007  0.46586800  0.80025390     1.73200
Fe281      Fe  0.78065954  0.43900958  0.89750292     1.54400
O282        O  0.81688274  0.38537543  0.89517808    -0.80600
O283        O  0.70762630  0.50258911  0.85011272    -0.79000
O284        O  0.85349327  0.39137256  0.83800234    -0.83200
O285        O  0.84829959  0.47448095  0.83999167    -0.78000
O286        O  0.73572826  0.41372011  0.89528629    -0.79800
O287        O  0.74956454  0.51134992  0.77142769    -0.82500
C288        C  0.84710331  0.47761202  0.88219815     0.98200
C289        C  0.84622666  0.37367002  0.87234226     1.05700
O290        O  0.78009607  0.44763555  0.83267693    -1.11500
O291        O  0.75037383  0.43182233  0.74514584    -0.73900
O292        O  0.80952857  0.40050048  0.75768882    -0.77400
O293        O  0.82525736  0.46367786  0.90654340    -0.78100
C294        C  0.77907681  0.40558087  0.73597151     0.97100
O295        O  0.80848493  0.48322248  0.75491717    -0.76100
O296        O  0.71128267  0.42202259  0.82649890    -0.81300
C297        C  0.71616268  0.51018629  0.88944403     0.99800
C298        C  0.71303269  0.40785991  0.86564168     1.05700
O299        O  0.74516776  0.49139481  0.90948757    -0.76900
C300        C  0.77953656  0.51044924  0.75028502     1.04000
N301        N  0.79515655  0.74916258  0.53558184    -0.02400
C302        C  0.80216619  0.72691243  0.57287415     0.00100
C303        C  0.83514059  0.73031788  0.59283568    -0.22700
C304        C  0.84877633  0.75588504  0.56746349    -0.22900
C305        C  0.82395559  0.76680296  0.53251624     0.00000
H306        H  0.84851172  0.71472436  0.62185666     0.13800
H307        H  0.87440251  0.76503082  0.57333299     0.13900
N308        N  0.73434508  0.19365458  0.50298763    -0.02400
C309        C  0.72424248  0.22224931  0.53300133     0.00100
C310        C  0.68622513  0.22968502  0.54104429    -0.22700
C311        C  0.67232972  0.20464823  0.51559913    -0.22900
C312        C  0.70224882  0.18312129  0.49256101     0.00000
H313        H  0.67044173  0.25071462  0.56360276     0.13800
H314        H  0.64376725  0.20149542  0.51511738     0.13900
Fe315      Fe  0.97058872  0.97113857  0.28877790     1.65800
Fe316      Fe  0.56486631  0.94448909  0.29302808     1.73200
Fe317      Fe  0.51536390  0.97067302  0.38801964     1.54400
O318        O  0.97954648  0.02456837  0.38270009    -0.80600
O319        O  0.58981694  0.90873443  0.34486181    -0.79000
O320        O  0.94237580  0.01639565  0.32697754    -0.83200
O321        O  0.95042744  0.93297755  0.32860070    -0.78000
O322        O  0.56051504  0.99608127  0.38673059    -0.79800
O323        O  0.54921431  0.89825729  0.26490949    -0.82500
C324        C  0.94973815  0.93104562  0.37096195     0.98200
C325        C  0.94938493  0.03489216  0.36043917     1.05700
O326        O  0.51696948  0.96206707  0.32354670    -1.11500
O327        O  0.54682906  0.97726352  0.23649488    -0.73900
O328        O  0.98794918  0.00984906  0.24689065    -0.77400
O329        O  0.97004136  0.94631787  0.39598925    -0.78100
C330        C  0.51833673  0.00320590  0.22508878     0.97100
O331        O  0.49120310  0.92736779  0.24462652    -0.76100
O332        O  0.58426001  0.98970714  0.31793114    -0.81300
C333        C  0.58046670  0.89995912  0.38357814     0.99800
C334        C  0.58237766  0.00347052  0.35687998     1.05700
O335        O  0.55056679  0.91781133  0.40214368    -0.76900
C336        C  0.52022520  0.90022769  0.24114487     1.04000
C337        C  0.86106756  0.11197165  0.38760257     0.17000
C338        C  0.82403673  0.13355998  0.38919328    -0.32100
C339        C  0.81096335  0.15026461  0.42985634     0.21400
C340        C  0.83393376  0.14664588  0.46711636     0.03600
C341        C  0.87143234  0.12593134  0.46515842    -0.21800
C342        C  0.88428460  0.10826844  0.42468289     0.12700
S343        S  0.88018338  0.08509470  0.34328145    -0.05400
C344        C  0.91996535  0.06808675  0.37492382    -0.08900
C345        C  0.91839140  0.08345302  0.41740284    -0.25500
S346        S  0.81143637  0.16616553  0.51429294    -0.02700
C347        C  0.77059641  0.17859732  0.48352725    -0.16200
C348        C  0.77485350  0.16891509  0.43891944    -0.14200
H349        H  0.80560342  0.13553492  0.36061909     0.21200
H350        H  0.88921288  0.12212818  0.49445467     0.17300
H351        H  0.93992392  0.07485899  0.44262466     0.19800
H352        H  0.75238278  0.17406521  0.41463148     0.13100
C353        C  0.68008423  0.09198279  0.45051230     0.17000
C354        C  0.66668888  0.05860709  0.44969876    -0.32100
C355        C  0.64524123  0.05316310  0.41279885     0.21400
C356        C  0.63883602  0.07877501  0.37709478     0.03600
C357        C  0.65250624  0.11212014  0.37774028    -0.21800
C358        C  0.67256128  0.11845004  0.41568816     0.12700
S359        S  0.70156919  0.10637834  0.49537651    -0.05400
C360        C  0.69933531  0.14899062  0.46768999    -0.08900
C361        C  0.68347772  0.15142365  0.42552661    -0.25500
S362        S  0.61101685  0.06731850  0.33613770    -0.02700
C363        C  0.60688588  0.02869305  0.36858328    -0.16200
C364        C  0.62666882  0.02459898  0.40826614    -0.14200
H365        H  0.67104783  0.03878359  0.47773904     0.21200
H366        H  0.64617378  0.13310724  0.35092325     0.17300
H367        H  0.67752547  0.17706586  0.40482360     0.19800
H368        H  0.62683373  0.00225275  0.43286791     0.13100
C369        C  0.85778040  0.82298008  0.43943595     0.17000
C370        C  0.87745612  0.83309734  0.40298422    -0.32100
C371        C  0.89072664  0.86661451  0.40640174     0.21400
C372        C  0.88417462  0.88913624  0.44417869     0.03600
C373        C  0.86332338  0.87984832  0.47967614    -0.21800
C374        C  0.85057567  0.84620894  0.47653318     0.12700
S375        S  0.84523256  0.78031496  0.44556214    -0.05400
C376        C  0.82940381  0.79446969  0.49818411    -0.08900
C377        C  0.83399313  0.83022113  0.51000028    -0.25500
S378        S  0.90587607  0.92605160  0.44462308    -0.02700
C379        C  0.92378506  0.91150068  0.39309313    -0.16200
C380        C  0.91306265  0.87978867  0.37636587    -0.14200
H381        H  0.88387655  0.81463931  0.37437263     0.21200
H382        H  0.85894785  0.89701442  0.50948553     0.17300
H383        H  0.82848400  0.84234191  0.54287470     0.19800
H384        H  0.92245968  0.86618654  0.34507114     0.13100
C385        C  0.64477131  0.82958830  0.46393655     0.17000
C386        C  0.66473547  0.81211924  0.50161123    -0.32100
C387        C  0.70105104  0.78947670  0.49510113     0.21400
C388        C  0.71615928  0.78329402  0.45278855     0.03600
C389        C  0.69594415  0.80009378  0.41512999    -0.21800
C390        C  0.66031177  0.82392031  0.42181051     0.12700
S391        S  0.60243604  0.86201971  0.46521539    -0.05400
C392        C  0.60630526  0.86893145  0.40859951    -0.08900
C393        C  0.63837165  0.84624957  0.38998484    -0.25500
S394        S  0.76182863  0.75857101  0.45200890    -0.02700
C395        C  0.76131063  0.75797229  0.50935708    -0.16200
C396        C  0.72679361  0.77454021  0.52777921    -0.14200
H397        H  0.65333041  0.81772114  0.53472673     0.21200
H398        H  0.70834992  0.79657829  0.38231652     0.17300
H399        H  0.64617273  0.84743827  0.35532789     0.19800
H400        H  0.72181960  0.77848597  0.56311707     0.13100
C401        C  0.76111107  0.35124688  0.63236526     0.17000
C402        C  0.74739386  0.33988197  0.59248271    -0.32100
C403        C  0.75461509  0.30052630  0.58397460     0.21400
C404        C  0.77485799  0.27354922  0.61359498     0.03600
C405        C  0.78974449  0.28499837  0.65287285    -0.21800
C406        C  0.78225966  0.32445354  0.66158184     0.12700
S407        S  0.75137218  0.39723285  0.65106344    -0.05400
C408        C  0.77654759  0.38037132  0.69848389    -0.08900
C409        C  0.79181167  0.34117280  0.69940305    -0.25500
S410        S  0.77512098  0.22721963  0.60049135    -0.02700
C411        C  0.74821716  0.24445911  0.55428177    -0.16200
C412        C  0.73974053  0.28399801  0.54974776    -0.14200
H413        H  0.73023883  0.36069063  0.57011204     0.21200
H414        H  0.80483186  0.26405479  0.67663246     0.17300
H415        H  0.80742339  0.32560532  0.72715905     0.19800
H416        H  0.72050965  0.29995188  0.52509424     0.13100
C417        C  0.76116428  0.65551835  0.63723124     0.17000
C418        C  0.74661388  0.63736713  0.67238458    -0.32100
C419        C  0.76431057  0.59895603  0.68226098     0.21400
C420        C  0.79477591  0.57954337  0.65788855     0.03600
C421        C  0.80841263  0.59720569  0.62199312    -0.21800
C422        C  0.79103586  0.63551124  0.61243840     0.12700
S423        S  0.74855139  0.70358059  0.62490084    -0.05400
C424        C  0.78385575  0.69631864  0.58603330    -0.08900
C425        C  0.80355248  0.65853572  0.58257618    -0.25500
S426        S  0.81440218  0.53437543  0.67680357    -0.02700
C427        C  0.78098171  0.54114254  0.71785752    -0.16200
C428        C  0.75591970  0.57678845  0.71659860    -0.14200
H429        H  0.72377451  0.65297986  0.69247464     0.21200
H430        H  0.83265223  0.58225738  0.60356808     0.15300
H431        H  0.82866537  0.64925119  0.56293768     0.19800
H432        H  0.73332748  0.58616720  0.73996644     0.13100
C433        C  0.62815751  0.28399459  0.88531899     0.17000
C434        C  0.64596254  0.30423522  0.85567239    -0.32100
C435        C  0.65679010  0.33647972  0.87194052     0.21400
C436        C  0.64953828  0.34844363  0.91552341     0.03600
C437        C  0.63008619  0.32935048  0.94445204    -0.21800
C438        C  0.61992705  0.29668905  0.92847006     0.12700
S439        S  0.61989280  0.24008263  0.87492550    -0.05400
C440        C  0.60501164  0.23910038  0.92908141    -0.08900
C441        C  0.60576110  0.27136451  0.95346329    -0.25500
S442        S  0.66946030  0.38467364  0.93092807    -0.02700
C443        C  0.68746742  0.38389010  0.87802428    -0.16200
C444        C  0.67796746  0.35737829  0.84984051    -0.14200
H445        H  0.65328535  0.29385264  0.82238496     0.21200
H446        H  0.62526454  0.33808171  0.97876220     0.17300
H447        H  0.59999208  0.27425196  0.98877977     0.19800
H448        H  0.68789142  0.35217373  0.81602098     0.13100
C449        C  0.92884502  0.28784395  0.89171869     0.17000
C450        C  0.96119540  0.25855787  0.88654230    -0.32100
C451        C  0.98443336  0.24783243  0.92384599     0.21400
C452        C  0.97598584  0.26536517  0.96471743     0.03600
C453        C  0.94303964  0.29412272  0.97019487    -0.21800
C454        C  0.91969274  0.30489503  0.93272640     0.12700
S455        S  0.89966897  0.30789259  0.84912496    -0.05400
C456        C  0.87436683  0.33934832  0.88687803    -0.08900
C457        C  0.88794927  0.33413564  0.93028675    -0.25500
S458        S  0.00982535  0.25033975  0.00468635    -0.02700
C459        C  0.53470204  0.21933761  0.96611080    -0.16200
C460        C  0.51800312  0.22142424  0.92451076    -0.14200
H461        H  0.96861719  0.24560237  0.85442440     0.21200
H462        H  0.93651896  0.30831746  0.00180808     0.17300
H463        H  0.87687959  0.35261465  0.95777551     0.19800
H464        H  0.53053730  0.20530877  0.89590316     0.13100
C465        C  0.54066646  0.04599910  0.11454597     0.17000
C466        C  0.55712480  0.05243148  0.07419843    -0.32100
C467        C  0.55163089  0.09034208  0.05913984     0.21400
C468        C  0.53013985  0.12065022  0.08262046     0.03600
C469        C  0.01260080  0.11409417  0.12252697    -0.21800
C470        C  0.51863054  0.07602216  0.13811868     0.12700
S471        S  0.54825722  0.00258013  0.14062989    -0.05400
C472        C  0.52142492  0.02474048  0.18398808    -0.08900
C473        C  0.00685122  0.06380415  0.17799496    -0.25500
S474        S  0.53096098  0.16476582  0.06102439    -0.02700
C475        C  0.56086202  0.14195924  0.02035095    -0.16200
C476        C  0.56878076  0.10230186  0.02328817    -0.14200
H477        H  0.57502171  0.02905726  0.05643364     0.21200
H478        H  0.99652063  0.13770081  0.14160269     0.17300
H479        H  0.99047533  0.08244093  0.20244778     0.19800
H480        H  0.58813166  0.08311650  0.00193005     0.13100
C481        C  0.65025393  0.57701251  0.96838626     0.17000
C482        C  0.62871042  0.59224788  0.00523342    -0.32100
C483        C  0.59449737  0.61843708  0.99691941     0.21400
C484        C  0.58292190  0.63016463  0.95391520     0.03600
C485        C  0.60473626  0.61531479  0.91709472    -0.21800
C486        C  0.63823053  0.58793623  0.92533617     0.12700
S487        S  0.69035386  0.54164782  0.97134804    -0.05400
C488        C  0.69033402  0.54059951  0.91395894    -0.08900
C489        C  0.66111478  0.56708833  0.89390500    -0.25500
S490        S  0.53913182  0.65956805  0.95054345    -0.02700
C491        C  0.53578962  0.65438929  0.00731236    -0.16200
C492        C  0.56755015  0.63254009  0.02782987    -0.14200
H493        H  0.63728689  0.58257644  0.03874428     0.21200
H494        H  0.59505580  0.62320079  0.88344903     0.17300
H495        H  0.65596408  0.56975601  0.85835310     0.19800
H496        H  0.56964719  0.62513246  0.06293152     0.13100
C497        C  0.94754324  0.57869214  0.94495546     0.17000
C498        C  0.93238604  0.56423243  0.90773503    -0.32100
C499        C  0.91165046  0.53657431  0.91554035     0.21400
C500        C  0.90708331  0.52342950  0.95831744     0.03600
C501        C  0.92335852  0.53674657  0.99507290    -0.21800
C502        C  0.94326414  0.56484859  0.98741177     0.12700
S503        S  0.96726821  0.61731489  0.94408846    -0.05400
C504        C  0.96948065  0.61467212  0.00146289    -0.08900
C505        C  0.95634172  0.58483747  0.01967157    -0.25500
S506        S  0.87830487  0.49286506  0.96200764    -0.02700
C507        C  0.87220601  0.49745721  0.90518555    -0.16200
C508        C  0.89191728  0.52129792  0.88455495    -0.14200
H509        H  0.93476793  0.57560181  0.87461588     0.21200
H510        H  0.91888530  0.52720454  0.02850870     0.17300
H511        H  0.95309153  0.58042084  0.05504495     0.19800
H512        H  0.89085947  0.52802800  0.84926546     0.13100
C513        C  0.50543509  0.83650640  0.14479978     0.17000
C514        C  0.99051180  0.82044396  0.10902254    -0.32100
C515        C  0.50713647  0.78246992  0.09846809     0.21400
C516        C  0.53793482  0.76138664  0.12168182     0.03600
C517        C  0.55401465  0.77813618  0.15650150    -0.21800
C518        C  0.53663121  0.81607513  0.16793490     0.12700
S519        S  0.98573298  0.88029509  0.16587946    -0.05400
C520        C  0.51972317  0.87148135  0.20670513    -0.08900
C521        C  0.54540560  0.83639318  0.20340930    -0.25500
S522        S  0.54906557  0.71360758  0.10890859    -0.02700
C523        C  0.51140935  0.72251499  0.07276054    -0.16200
C524        C  0.99249500  0.76058821  0.06982598    -0.14200
H525        H  0.96545659  0.83607194  0.09200032     0.21200
H526        H  0.57735579  0.76158798  0.17569827     0.17300
H527        H  0.56834163  0.82590093  0.22642319     0.19800
H528        H  0.96637961  0.77082741  0.05188180     0.13100
loop_ 
_geom_bond_atom_site_label_1 
_geom_bond_atom_site_label_2 
_geom_bond_distance 
_geom_bond_site_symmetry_2 
_ccdc_geom_bond_type 
N1            C2   1.353   1_455  A
N1          C269   1.356   1_455  A
N1          C227   1.433       .  S
C2          C259   1.466   1_655  S
C2          C267   1.382       .  A
C3            C4   1.369       .  A
C3          C266   1.382       .  A
C3            H6   1.082       .  S
C4            C5   1.382       .  A
C4            H7   1.082       .  S
C5          N265   1.356       .  A
C5          C240   1.472       .  S
N8           C12   1.353       .  A
N8            C9   1.357       .  A
N8          C195   1.436       .  S
C9          C211   1.478   1_556  S
C9           C10   1.387       .  A
C10          C11   1.371       .  A
C10          H13   1.082       .  S
C11          C12   1.377       .  A
C11          H14   1.082       .  S
C12         C176   1.464       .  S
Fe15         O31   2.077       .  S
Fe15         O21   2.072       .  S
Fe15         O28   2.062       .  S
Fe15         O20   2.066       .  S
Fe15         O26   1.960       .  S
Fe16         O19   2.073       .  S
Fe16         O23   2.063       .  S
Fe16         O27   2.081       .  S
Fe16         O32   2.065       .  S
Fe16         O26   1.967       .  S
Fe17         O35   2.056       .  S
Fe17         O22   2.064       .  S
Fe17         O29   2.057       .  S
Fe17         O18   2.069       .  S
Fe17         O26   1.966       .  S
O18          C25   1.268       .  A
O19          C33   1.269       .  A
O20          C25   1.267       .  A
O21          C24   1.273       .  A
O22          C34   1.270       .  A
O23          C36   1.267       .  A
C24         C243   1.466       .  S
C24          O29   1.270       .  A
C25         C192   1.471       .  S
O27          C30   1.271       .  A
O28          C30   1.268       .  A
C30         C144   1.467       .  S
O31          C36   1.270       .  A
O32          C34   1.271       .  A
C33         C224   1.472       .  S
C33          O35   1.266       .  A
C34         C179   1.462       .  S
C36         C163   1.473       .  S
N37          C41   1.358       .  A
N37          C38   1.356       .  A
N37         C131   1.439       .  S
C38         C160   1.468       .  S
C38          C39   1.382       .  A
C39          C40   1.370       .  A
C39          H42   1.082       .  S
C40          C41   1.380       .  A
C40          H43   1.083       .  S
C41         C112   1.470       .  S
N44          C48   1.358       .  A
N44          C45   1.358       .  A
N44          C83   1.443       .  S
C45         C147   1.469       .  S
C45          C46   1.382       .  A
C46          C47   1.371       .  A
C46          H49   1.082       .  S
C47          C48   1.379       .  A
C47          H50   1.082       .  S
C48          C96   1.466       .  S
Fe51         O57   2.074       .  S
Fe51         O64   2.074   1_565  S
Fe51         O56   2.069   1_565  S
Fe51        O331   2.070       .  S
Fe51        O326   1.956       .  S
Fe52         O55   2.075       .  S
Fe52         O59   2.066       .  S
Fe52         O63   2.071       .  S
Fe52         O68   2.065       .  S
Fe52         O62   1.959       .  S
Fe53         O71   2.068       .  S
Fe53         O58   2.073       .  S
Fe53        O329   2.069   1_455  S
Fe53        O318   2.072   1_465  S
Fe53         O62   1.962       .  S
O54        Fe317   2.072   1_545  S
O54          C61   1.269       .  A
O55          C69   1.270       .  A
O56          C61   1.268       .  A
O57          C60   1.273       .  A
O58          C70   1.272   1_565  A
O59          C72   1.268       .  A
C60         C115   1.467       .  S
C60          O65   1.272       .  A
C61          C80   1.478       .  S
O62        Fe315   1.956   1_455  S
O63          C66   1.270   1_565  A
O64         C330   1.271       .  A
O65        Fe317   2.069       .  S
C66         C208   1.468       .  S
C66         O328   1.271   1_455  A
O67        Fe315   2.070       .  S
O67          C72   1.270   1_655  A
O68          C70   1.270   1_565  A
C69         C128   1.479       .  S
C69          O71   1.269       .  A
C70          C99   1.464       .  S
C72         C256   1.471       .  S
C73          C78   1.387       .  A
C73          C74   1.400       .  A
C73          S79   1.705       .  A
C74          C75   1.401       .  A
C74          H85   1.083       .  S
C75          C84   1.368       .  A
C75          C76   1.386       .  A
C76          C77   1.406       .  A
C76          S82   1.713       .  A
C77          C78   1.407       .  A
C77          H86   1.082       .  S
C78          C81   1.376       .  A
S79          C80   1.724       .  A
C80          C81   1.390       .  A
C81          H87   1.082       .  S
S82          C83   1.725       .  A
C83          C84   1.387       .  A
C84          H88   1.082       .  S
C89          C94   1.388       .  A
C89          C90   1.398       .  A
C89          S95   1.704       .  A
C90          C91   1.399       .  A
C90         H101   1.083       .  S
C91         C100   1.366       .  A
C91          C92   1.387       .  A
C92          C93   1.403       .  A
C92          S98   1.711       .  A
C93          C94   1.404       .  A
C93         H102   1.083       .  S
C94          C97   1.370       .  A
S95          C96   1.717       .  A
C96          C97   1.385       .  A
C97         H103   1.083       .  S
S98          C99   1.722       .  A
C99         C100   1.382       .  A
C100        H104   1.083       .  S
C105        C110   1.386       .  A
C105        C106   1.404       .  A
C105        S111   1.708       .  A
C106        C107   1.405       .  A
C106        H117   1.082       .  S
C107        C116   1.374       .  A
C107        C108   1.388       .  A
C108        C109   1.397       .  A
C108        S114   1.699       .  A
C109        C110   1.398       .  A
C109        H118   1.082       .  S
C110        C113   1.366       .  A
S111        C112   1.725       .  A
C112        C113   1.382       .  A
C113        H119   1.083       .  S
S114        C115   1.720       .  A
C115        C116   1.387       .  A
C116        H120   1.083       .  S
C121        C126   1.386       .  A
C121        C122   1.405       .  A
C121        S127   1.711       .  A
C122        C123   1.406       .  A
C122        H133   1.082       .  S
C123        C132   1.375       .  A
C123        C124   1.387       .  A
C124        C125   1.401       .  A
C124        S130   1.705       .  A
C125        C126   1.402       .  A
C125        H134   1.083       .  S
C126        C129   1.371       .  A
S127        C128   1.726       .  A
C128        C129   1.388       .  A
C129        H135   1.083       .  S
S130        C131   1.722       .  A
C131        C132   1.388       .  A
C132        H136   1.082       .  S
C137        C142   1.387       .  A
C137        C138   1.399       .  A
C137        S143   1.705       .  A
C138        C139   1.400       .  A
C138        H149   1.083       .  S
C139        C148   1.367       .  A
C139        C140   1.386       .  A
C140        C141   1.404       .  A
C140        S146   1.710       .  A
C141        C142   1.405       .  A
C141        H150   1.082       .  S
C142        C145   1.372       .  A
S143        C144   1.720       .  A
C144        C145   1.386       .  A
C145        H151   1.083       .  S
S146        C147   1.724       .  A
C147        C148   1.384       .  A
C148        H152   1.083       .  S
C153        C158   1.386       .  A
C153        C154   1.406       .  A
C153        S159   1.713       .  A
C154        C155   1.407       .  A
C154        H165   1.082       .  S
C155        C164   1.375       .  A
C155        C156   1.387       .  A
C156        C157   1.397       .  A
C156        S162   1.702       .  A
C157        C158   1.399       .  A
C157        H166   1.083       .  S
C158        C161   1.365       .  A
S159        C160   1.723       .  A
C160        C161   1.384       .  A
C161        H167   1.083       .  S
S162        C163   1.721       .  A
C163        C164   1.390       .  A
C164        H168   1.083       .  S
C169        C174   1.388       .  A
C169        C170   1.401       .  A
C169        S175   1.705       .  A
C170        C171   1.401       .  A
C170        H181   1.082       .  S
C171        C180   1.370       .  A
C171        C172   1.388       .  A
C172        C173   1.399       .  A
C172        S178   1.702       .  A
C173        C174   1.400       .  A
C173        H182   1.082       .  S
C174        C177   1.368       .  A
S175        C176   1.719       .  A
C176        C177   1.382       .  A
C177        H183   1.083       .  S
S178        C179   1.720       .  A
C179        C180   1.383       .  A
C180        H184   1.083       .  S
C185        C190   1.387       .  A
C185        C186   1.400       .  A
C185        S191   1.707       .  A
C186        C187   1.401       .  A
C186        H197   1.082       .  S
C187        C188   1.387       .  A
C187        C460   1.368       .  A
C188        C189   1.406       .  A
C188        S194   1.715   1_556  A
C189        C190   1.407       .  A
C189        H198   1.082   1_556  S
C190        C193   1.375       .  A
S191        C192   1.721       .  A
C192        C193   1.389       .  A
C193        H199   1.083       .  S
S194        C459   1.723   1_554  A
C195        C196   1.383       .  A
C195        S458   1.723   1_556  A
C196        C451   1.368   1_455  A
C196        H200   1.082       .  S
C201        C206   1.388       .  A
C201        C202   1.397       .  A
C201        S207   1.699       .  A
C202        C203   1.397       .  A
C202        H213   1.083       .  S
C203        C212   1.364       .  A
C203        C204   1.385       .  A
C204        C469   1.406       .  A
C204        S210   1.711       .  A
C205        C468   1.406       .  A
C205        C470   1.406       .  A
C205        H214   1.082       .  S
C206        C469   1.406       .  A
C206        C473   1.376       .  A
S207        C208   1.720       .  A
C208        C473   1.387       .  A
C209        C470   1.376       .  A
C209        C472   1.387       .  A
C209        H215   1.083       .  S
S210        C211   1.725       .  A
C211        C212   1.385       .  A
C212        H216   1.083       .  S
C217        C222   1.387       .  A
C217        C218   1.401   1_556  A
C217        S223   1.706       .  A
C218        C219   1.402   1_554  A
C218        H229   1.082       .  S
C219        C228   1.370   1_556  A
C219        C220   1.388       .  A
C220        C221   1.402       .  A
C220        S226   1.707       .  A
C221        C222   1.402       .  A
C221        H230   1.082       .  S
C222        C225   1.371       .  A
S223        C224   1.723       .  A
C224        C225   1.387       .  A
C225        H231   1.083       .  S
S226        C227   1.720   1_556  A
C227        C228   1.383       .  A
C228        H232   1.082       .  S
C233        C238   1.386       .  A
C233        C234   1.404       .  A
C233        S239   1.708       .  A
C234        C235   1.405       .  A
C234        H245   1.082       .  S
C235        C244   1.373       .  A
C235        C236   1.388       .  A
C236        C237   1.395       .  A
C236        S242   1.696       .  A
C237        C238   1.396       .  A
C237        H246   1.083   1_556  S
C238        C241   1.363   1_556  A
S239        C240   1.724   1_556  A
C240        C241   1.382       .  A
C241        H247   1.083       .  S
S242        C243   1.721       .  A
C243        C244   1.387       .  A
C244        H248   1.083       .  S
C249        C254   1.387       .  A
C249        C514   1.394   1_455  A
C249        S519   1.697   1_455  A
C250        C513   1.394       .  A
C250        C515   1.396       .  A
C250        H261   1.083       .  S
C251        C252   1.386       .  A
C251        C514   1.396   1_455  A
C251        C524   1.362   1_455  A
C252        C253   1.407       .  A
C252        S258   1.714       .  A
C253        C254   1.407       .  A
C253        H262   1.082       .  S
C254        C257   1.376       .  A
S255        C513   1.697       .  A
S255        C520   1.721       .  A
C256        C257   1.389       .  A
C256        S519   1.721   1_455  A
C257        H263   1.083       .  S
S258        C259   1.724       .  A
C259        C524   1.381   1_455  A
C260        C515   1.362       .  A
C260        C523   1.381       .  A
C260        H264   1.083       .  S
N265        C266   1.353       .  A
N265        C491   1.433       .  S
C266        C523   1.466       .  S
C267        C268   1.369       .  A
C267        H270   1.082       .  S
C268        C269   1.382       .  A
C268        H271   1.082       .  S
C269        C504   1.472       .  S
N272        C276   1.353       .  A
N272        C273   1.357       .  A
N272        C459   1.436       .  S
C273        C475   1.478   1_556  S
C273        C274   1.387       .  A
C274        C275   1.371       .  A
C274        H277   1.082       .  S
C275        C276   1.377       .  A
C275        H278   1.082       .  S
C276        C440   1.464       .  S
Fe279       O295   2.077       .  S
Fe279       O285   2.072       .  S
Fe279       O292   2.062       .  S
Fe279       O284   2.066       .  S
Fe279       O290   1.960       .  S
Fe280       O283   2.073       .  S
Fe280       O287   2.063       .  S
Fe280       O291   2.081       .  S
Fe280       O296   2.065       .  S
Fe280       O290   1.967       .  S
Fe281       O299   2.056       .  S
Fe281       O286   2.064       .  S
Fe281       O293   2.057       .  S
Fe281       O282   2.069       .  S
Fe281       O290   1.966       .  S
O282        C289   1.268       .  A
O283        C297   1.269       .  A
O284        C289   1.267       .  A
O285        C288   1.273       .  A
O286        C298   1.270       .  A
O287        C300   1.267       .  A
C288        C507   1.466       .  S
C288        O293   1.270       .  A
C289        C456   1.471       .  S
O291        C294   1.271       .  A
O292        C294   1.268       .  A
C294        C408   1.467       .  S
O295        C300   1.270       .  A
O296        C298   1.271       .  A
C297        C488   1.472       .  S
C297        O299   1.266       .  A
C298        C443   1.462       .  S
C300        C427   1.473       .  S
N301        C305   1.358       .  A
N301        C302   1.356       .  A
N301        C395   1.439       .  S
C302        C424   1.468       .  S
C302        C303   1.382       .  A
C303        C304   1.370       .  A
C303        H306   1.082       .  S
C304        C305   1.380       .  A
C304        H307   1.083       .  S
C305        C376   1.470       .  S
N308        C312   1.358       .  A
N308        C309   1.358       .  A
N308        C347   1.443       .  S
C309        C411   1.469       .  S
C309        C310   1.382       .  A
C310        C311   1.371       .  A
C310        H313   1.082       .  S
C311        C312   1.379       .  A
C311        H314   1.082       .  S
C312        C360   1.466       .  S
Fe315       O321   2.074       .  S
Fe315       O328   2.074   1_565  S
Fe315       O320   2.069   1_565  S
Fe316       O319   2.075       .  S
Fe316       O323   2.066       .  S
Fe316       O327   2.071       .  S
Fe316       O332   2.065       .  S
Fe316       O326   1.959       .  S
Fe317       O335   2.068       .  S
Fe317       O322   2.073       .  S
Fe317       O326   1.962       .  S
O318        C325   1.269       .  A
O319        C333   1.270       .  A
O320        C325   1.268       .  A
O321        C324   1.273       .  A
O322        C334   1.272   1_565  A
O323        C336   1.268       .  A
C324        C379   1.467       .  S
C324        O329   1.272       .  A
C325        C344   1.478       .  S
O327        C330   1.270   1_565  A
C330        C472   1.468       .  S
O331        C336   1.270       .  A
O332        C334   1.270   1_565  A
C333        C392   1.479       .  S
C333        O335   1.269       .  A
C334        C363   1.464       .  S
C336        C520   1.471       .  S
C337        C342   1.387       .  A
C337        C338   1.400       .  A
C337        S343   1.705       .  A
C338        C339   1.401       .  A
C338        H349   1.083       .  S
C339        C348   1.368       .  A
C339        C340   1.386       .  A
C340        C341   1.406       .  A
C340        S346   1.713       .  A
C341        C342   1.407       .  A
C341        H350   1.082       .  S
C342        C345   1.376       .  A
S343        C344   1.724       .  A
C344        C345   1.390       .  A
C345        H351   1.082       .  S
S346        C347   1.725       .  A
C347        C348   1.387       .  A
C348        H352   1.082       .  S
C353        C358   1.388       .  A
C353        C354   1.398       .  A
C353        S359   1.704       .  A
C354        C355   1.399       .  A
C354        H365   1.083       .  S
C355        C364   1.366       .  A
C355        C356   1.387       .  A
C356        C357   1.403       .  A
C356        S362   1.711       .  A
C357        C358   1.404       .  A
C357        H366   1.083       .  S
C358        C361   1.370       .  A
S359        C360   1.717       .  A
C360        C361   1.385       .  A
C361        H367   1.083       .  S
S362        C363   1.722       .  A
C363        C364   1.382       .  A
C364        H368   1.083       .  S
C369        C374   1.386       .  A
C369        C370   1.404       .  A
C369        S375   1.708       .  A
C370        C371   1.405       .  A
C370        H381   1.082       .  S
C371        C380   1.374       .  A
C371        C372   1.388       .  A
C372        C373   1.397       .  A
C372        S378   1.699       .  A
C373        C374   1.398       .  A
C373        H382   1.082       .  S
C374        C377   1.366       .  A
S375        C376   1.725       .  A
C376        C377   1.382       .  A
C377        H383   1.083       .  S
S378        C379   1.720       .  A
C379        C380   1.387       .  A
C380        H384   1.083       .  S
C385        C390   1.386       .  A
C385        C386   1.405       .  A
C385        S391   1.711       .  A
C386        C387   1.406       .  A
C386        H397   1.082       .  S
C387        C396   1.375       .  A
C387        C388   1.387       .  A
C388        C389   1.401       .  A
C388        S394   1.705       .  A
C389        C390   1.402       .  A
C389        H398   1.083       .  S
C390        C393   1.371       .  A
S391        C392   1.726       .  A
C392        C393   1.388       .  A
C393        H399   1.083       .  S
S394        C395   1.722       .  A
C395        C396   1.388       .  A
C396        H400   1.082       .  S
C401        C406   1.387       .  A
C401        C402   1.399       .  A
C401        S407   1.705       .  A
C402        C403   1.400       .  A
C402        H413   1.083       .  S
C403        C412   1.367       .  A
C403        C404   1.386       .  A
C404        C405   1.404       .  A
C404        S410   1.710       .  A
C405        C406   1.405       .  A
C405        H414   1.082       .  S
C406        C409   1.372       .  A
S407        C408   1.720       .  A
C408        C409   1.386       .  A
C409        H415   1.083       .  S
S410        C411   1.724       .  A
C411        C412   1.384       .  A
C412        H416   1.083       .  S
C417        C422   1.386       .  A
C417        C418   1.406       .  A
C417        S423   1.713       .  A
C418        C419   1.407       .  A
C418        H429   1.082       .  S
C419        C428   1.375       .  A
C419        C420   1.387       .  A
C420        C421   1.397       .  A
C420        S426   1.702       .  A
C421        C422   1.399       .  A
C421        H430   1.083       .  S
C422        C425   1.365       .  A
S423        C424   1.723       .  A
C424        C425   1.384       .  A
C425        H431   1.083       .  S
S426        C427   1.721       .  A
C427        C428   1.390       .  A
C428        H432   1.083       .  S
C433        C438   1.388       .  A
C433        C434   1.401       .  A
C433        S439   1.705       .  A
C434        C435   1.401       .  A
C434        H445   1.082       .  S
C435        C444   1.370       .  A
C435        C436   1.388       .  A
C436        C437   1.399       .  A
C436        S442   1.702       .  A
C437        C438   1.400       .  A
C437        H446   1.082       .  S
C438        C441   1.368       .  A
S439        C440   1.719       .  A
C440        C441   1.382       .  A
C441        H447   1.083       .  S
S442        C443   1.720       .  A
C443        C444   1.383       .  A
C444        H448   1.083       .  S
C449        C454   1.387       .  A
C449        C450   1.400       .  A
C449        S455   1.707       .  A
C450        C451   1.401       .  A
C450        H461   1.082       .  S
C451        C452   1.387       .  A
C452        C453   1.406       .  A
C452        S458   1.715   1_656  A
C453        C454   1.407       .  A
C453        H462   1.082   1_556  S
C454        C457   1.375       .  A
S455        C456   1.721       .  A
C456        C457   1.389       .  A
C457        H463   1.083       .  S
C459        C460   1.383       .  A
C460        H464   1.082       .  S
C465        C470   1.388       .  A
C465        C466   1.397       .  A
C465        S471   1.699       .  A
C466        C467   1.397       .  A
C466        H477   1.083       .  S
C467        C476   1.364       .  A
C467        C468   1.385       .  A
C468        S474   1.711       .  A
C469        H478   1.082   1_455  S
S471        C472   1.720       .  A
C473        H479   1.083   1_455  S
S474        C475   1.725       .  A
C475        C476   1.385       .  A
C476        H480   1.083       .  S
C481        C486   1.387       .  A
C481        C482   1.401   1_556  A
C481        S487   1.706       .  A
C482        C483   1.402   1_554  A
C482        H493   1.082       .  S
C483        C492   1.370   1_556  A
C483        C484   1.388       .  A
C484        C485   1.402       .  A
C484        S490   1.707       .  A
C485        C486   1.402       .  A
C485        H494   1.082       .  S
C486        C489   1.371       .  A
S487        C488   1.723       .  A
C488        C489   1.387       .  A
C489        H495   1.083       .  S
S490        C491   1.720   1_556  A
C491        C492   1.383       .  A
C492        H496   1.082       .  S
C497        C502   1.386       .  A
C497        C498   1.404       .  A
C497        S503   1.708       .  A
C498        C499   1.405       .  A
C498        H509   1.082       .  S
C499        C508   1.373       .  A
C499        C500   1.388       .  A
C500        C501   1.395       .  A
C500        S506   1.696       .  A
C501        C502   1.396       .  A
C501        H510   1.083   1_556  S
C502        C505   1.363   1_556  A
S503        C504   1.724   1_556  A
C504        C505   1.382       .  A
C505        H511   1.083       .  S
S506        C507   1.721       .  A
C507        C508   1.387       .  A
C508        H512   1.083       .  S
C513        C518   1.387       .  A
C514        H525   1.083       .  S
C515        C516   1.386       .  A
C516        C517   1.407       .  A
C516        S522   1.714       .  A
C517        C518   1.407       .  A
C517        H526   1.082       .  S
C518        C521   1.376       .  A
C520        C521   1.389       .  A
C521        H527   1.083       .  S
S522        C523   1.724       .  A
C524        H528   1.083       .  S
