geometry optimzed in LAMMPS
_audit_creation_date              2020-12-01 
_audit_creation_method            'lammps2cif' 
_symmetry_space_group_name_H-M    'P1' 
_symmetry_Int_Tables_number       1 
_symmetry_cell_setting            triclinic 
loop_ 
_symmetry_equiv_pos_as_xyz 
  x,y,z 
_cell_length_a                    36.13423377 
_cell_length_b                    35.769550196794086 
_cell_length_c                    35.81101318557854 
_cell_angle_alpha                 89.7130757059597 
_cell_angle_beta                  90.14392262943952 
_cell_angle_gamma                 89.96123517457582 
loop_ 
_atom_site_label 
_atom_site_type_symbol 
_atom_site_fract_x 
_atom_site_fract_y 
_atom_site_fract_z 
_atom_site_charge 
Fe1        Fe  0.15824852  0.05752836  0.45623392     1.65800
Fe2        Fe  0.22224892  0.08759104  0.39400876     1.73200
Fe3        Fe  0.24689863  0.03099500  0.46907456     1.54400
O4          O  0.22294748  0.04535815  0.52024746    -0.81900
O5          O  0.25824998  0.04761481  0.37502068    -0.80200
O6          O  0.17196541  0.07819406  0.50748724    -0.84400
O7          O  0.16202595  0.00389192  0.47588243    -0.79200
O8          O  0.27930758  0.07810018  0.47112426    -0.81000
O9          O  0.18106344  0.06000793  0.36277409    -0.83700
C10         C  0.18439586  0.97676446  0.47883857     0.97000
C11         C  0.19503250  0.06453848  0.53044550     1.04500
O12         O  0.20942332  0.05883785  0.43952034    -1.12700
O13         O  0.18811149  0.13378493  0.40442253    -0.75200
O14         O  0.14440475  0.11057705  0.44077467    -0.78600
O15         O  0.21823060  0.98051545  0.47043358    -0.79300
C16         C  0.15793876  0.13707276  0.42208034     0.95900
O17         O  0.14244028  0.03662678  0.40582745    -0.77300
O18         O  0.26515664  0.11498563  0.42229248    -0.82500
C19         C  0.27682026  0.02083155  0.38854600     0.98500
C20         C  0.28440294  0.10726475  0.45142082     1.04500
O21         O  0.27549087  0.01181621  0.42282831    -0.78100
C22         C  0.15389950  0.03915441  0.37239491     1.02800
Fe23       Fe  0.95677542  0.96091764  0.32685891     1.65800
Fe24       Fe  0.92167896  0.89935263  0.26378756     1.73200
Fe25       Fe  0.97359166  0.97547607  0.23416354     1.54400
O26         O  0.95834634  0.02695729  0.25726329    -0.81900
O27         O  0.95927236  0.88079304  0.22509941    -0.80200
O28         O  0.94118741  0.01521982  0.31595087    -0.84400
O29         O  0.01189811  0.97362420  0.31969067    -0.79200
O30         O  0.92497014  0.97591355  0.20390297    -0.81000
O31         O  0.95020969  0.86679868  0.30303430    -0.83700
C32         C  0.03487538  0.97863809  0.29337412     0.97000
C33         C  0.94596112  0.03750893  0.28876134     1.04500
O34         O  0.95049307  0.94530970  0.27481930    -1.12700
O35         O  0.87931760  0.91007085  0.30166125    -0.75200
O36         O  0.90277097  0.95051769  0.34218666    -0.78600
O37         O  0.02520433  0.97824132  0.25937344    -0.79300
C38         C  0.87668559  0.92987482  0.33082360     0.95900
O39         O  0.97321843  0.90818192  0.34308866    -0.77300
O40         O  0.89088983  0.92711054  0.22309097    -0.82500
C41         C  0.98499203  0.89447636  0.20546490     0.98500
C42         C  0.89595007  0.95593639  0.20270146     1.04500
O43         O  0.99284585  0.92904532  0.20570332    -0.78100
C44         C  0.96899516  0.87473080  0.33200355     1.02800
Fe45       Fe  0.95708355  0.17453666  0.45220286     1.65800
Fe46       Fe  0.89198561  0.23271180  0.41583766     1.73200
Fe47       Fe  0.96418216  0.26748286  0.46961918     1.54400
O48         O  0.96902420  0.24099945  0.52170002    -0.81900
O49         O  0.91939860  0.27115928  0.38274604    -0.80200
O50         O  0.96266245  0.18043220  0.50868419    -0.84400
O51         O  0.01105035  0.18836841  0.44288717    -0.79200
O52         O  0.91572521  0.29305770  0.48872573    -0.81000
O53         O  0.90370516  0.19194411  0.37631234    -0.83700
C54         C  0.03048959  0.21760734  0.44425532     0.97000
C55         C  0.96724717  0.20680669  0.53165538     1.04500
O56         O  0.93764373  0.22509536  0.44612009    -1.12700
O57         O  0.86071461  0.19400850  0.44605591    -0.75200
O58         O  0.90559002  0.15414329  0.46145366    -0.78600
O59         O  0.01716510  0.24912671  0.45362725    -0.79300
C60         C  0.87163446  0.16264305  0.45874581     0.95900
O61         O  0.95374470  0.16215006  0.39649963    -0.77300
O62         O  0.87178970  0.27448478  0.44947432    -0.82500
C63         C  0.94532215  0.29443584  0.38864871     0.98500
C64         C  0.88287415  0.29488773  0.47599092     1.04500
O65         O  0.96208221  0.29727367  0.41989708    -0.78100
C66         C  0.92896213  0.16775842  0.37209164     1.02800
Fe67       Fe  0.02142873  0.03389479  0.66160088     1.65800
Fe68       Fe  0.06106801  0.09479587  0.72246388     1.73200
Fe69       Fe  0.00838339  0.02071641  0.75518008     1.54400
O70         O  0.95540448  0.02002249  0.73242881    -0.81900
O71         O  0.09151732  0.06781706  0.76365342    -0.80200
O72         O  0.96649342  0.02354418  0.67145936    -0.84400
O73         O  0.03525252  0.97928631  0.67288275    -0.79200
O74         O  0.99311785  0.06782671  0.78426195    -0.81000
O75         O  0.10226682  0.08041505  0.68482335    -0.83700
C76         C  0.03101176  0.95753623  0.70056414     0.97000
C77         C  0.94446258  0.01977229  0.69875736     1.04500
O78         O  0.03036325  0.04979612  0.71317767    -1.12700
O79         O  0.03393916  0.12708220  0.68244128    -0.75200
O80         O  0.00623113  0.08682917  0.64432758    -0.78600
O81         O  0.02017195  0.96864108  0.73231442    -0.79300
C82         C  0.01371739  0.11999925  0.65429395     0.95900
O83         O  0.07526720  0.04203789  0.64458123    -0.77300
O84         O  0.02465076  0.11603438  0.76101012    -0.82500
C85         C  0.08756411  0.03864935  0.78366359     0.98500
C86         C  0.00129664  0.10223945  0.78346353     1.04500
O87         O  0.05861983  0.01844586  0.78274512    -0.78100
C88         C  0.10315711  0.06020452  0.65584016     1.02800
Fe89       Fe  0.82444771  0.95026996  0.53169318     1.65800
Fe90       Fe  0.75993314  0.91770172  0.59172705     1.73200
Fe91       Fe  0.73411439  0.97306670  0.51626021     1.54400
O92         O  0.76365721  0.02283454  0.50869177    -0.81900
O93         O  0.72259519  0.88625740  0.56167788    -0.80200
O94         O  0.82152038  0.00558123  0.52010969    -0.84400
O95         O  0.81288258  0.93739402  0.47739654    -0.79200
O96         O  0.70834629  0.99575254  0.56282839    -0.81000
O97         O  0.79898495  0.87520628  0.58456600    -0.83700
C98         C  0.78594623  0.94173279  0.45503297     0.97000
C99         C  0.79824151  0.02936620  0.50907509     1.04500
O100        O  0.77267890  0.94711746  0.54647718    -1.12700
O101        O  0.79594435  0.94866895  0.62480230    -0.75200
O102        O  0.84067100  0.96469804  0.58476751    -0.78600
O103        O  0.75450425  0.95393402  0.46523072    -0.79300
C104        C  0.82615918  0.96521765  0.61704808     0.95900
O105        O  0.83579068  0.89503492  0.53946062    -0.77300
O106        O  0.71851255  0.95358311  0.60751759    -0.82500
C107        C  0.70028500  0.89482450  0.53546031     0.98500
C108        C  0.70227894  0.98250303  0.59521495     1.04500
O109        O  0.70048191  0.92640860  0.51887257    -0.78100
C110        C  0.82562247  0.87018843  0.56220282     1.02800
Fe111      Fe  0.02308839  0.82736642  0.53649883     1.65800
Fe112      Fe  0.08903733  0.77067176  0.57267679     1.73200
Fe113      Fe  0.01829177  0.73591147  0.51904261     1.54400
O114        O  0.96443989  0.75827030  0.52624905    -0.81900
O115        O  0.11409795  0.74012488  0.53130387    -0.80200
O116        O  0.97342285  0.81096429  0.55717947    -0.84400
O117        O  0.00767218  0.81831930  0.48159879    -0.79200
O118        O  0.01294798  0.71086987  0.57018353    -0.81000
O119        O  0.11472508  0.81963226  0.55110215    -0.83700
C120        C  0.01400770  0.79307632  0.45760064     0.97000
C121        C  0.95222711  0.78575344  0.54518768     1.04500
O122        O  0.04390760  0.77794577  0.54265137    -1.12700
O123        O  0.07016618  0.80019733  0.61776238    -0.75200
O124        O  0.03589090  0.84367215  0.58976164    -0.78600
O125        O  0.02232621  0.75974313  0.46655967    -0.79300
C126        C  0.05211671  0.83038192  0.61825034     0.95900
O127        O  0.07139803  0.84770692  0.51645435    -0.77300
O128        O  0.06654031  0.72282041  0.59914158    -0.82500
C129        C  0.10207425  0.71328580  0.51191563     0.98500
C130        C  0.03448584  0.70751294  0.59802654     1.04500
O131        O  0.06749969  0.70698651  0.50834294    -0.78100
C132        C  0.10377581  0.84618049  0.52959084     1.02800
Fe133      Fe  0.44903911  0.16712153  0.02689778     1.65800
Fe134      Fe  0.39431338  0.23396475  0.06634731     1.73200
Fe135      Fe  0.47205368  0.25903258  0.01549867     1.54400
O136        O  0.52021263  0.23157692  0.03216759    -0.81900
O137        O  0.37868460  0.27373780  0.02842220    -0.80200
O138        O  0.50375130  0.17204631  0.04162196    -0.84400
O139        O  0.46198021  0.17540840  0.97125454    -0.79200
O140        O  0.47321615  0.28809503  0.06476162    -0.81000
O141        O  0.35883593  0.19722042  0.03843711    -0.83700
C142        C  0.47271899  0.20244183  0.95094806     0.97000
C143        C  0.52780241  0.19781636  0.04043139     1.04500
O144        O  0.43858031  0.22009484  0.03633692    -1.12700
O145        O  0.40418074  0.19548777  0.10828105    -0.75200
O146        O  0.43796424  0.15112871  0.08129140    -0.78600
O147        O  0.47644870  0.23539256  0.96313725    -0.79300
C148        C  0.42116127  0.16456012  0.10924535     0.95900
O149        O  0.39583941  0.15646816  0.01022599    -0.77300
O150        O  0.42350939  0.27278400  0.09799318    -0.82500
C151        C  0.39399648  0.29295120  0.00303405     0.98500
C152        C  0.45326369  0.29119973  0.09365595     1.04500
O153        O  0.42821545  0.29070615  0.99540128    -0.78100
C154        C  0.36393066  0.16934727  0.01714997     1.02800
Fe155      Fe  0.32328591  0.97584137  0.94675525     1.65800
Fe156      Fe  0.26182419  0.92470568  0.89552912     1.73200
Fe157      Fe  0.23146641  0.98263591  0.96664734     1.54400
O158        O  0.25696322  0.97072413  0.01722341    -0.81900
O159        O  0.22016017  0.95843954  0.87362469    -0.80200
O160        O  0.31705401  0.96910685  0.00316585    -0.84400
O161        O  0.31121740  0.03176610  0.95041688    -0.79200
O162        O  0.20453743  0.93231474  0.97149444    -0.81000
O163        O  0.29807078  0.94936654  0.85785003    -0.83700
C164        C  0.28373128  0.05118040  0.96060707     0.97000
C165        C  0.29073981  0.96769807  0.02640895     1.04500
O166        O  0.27207092  0.96109253  0.93624765    -1.12700
O167        O  0.30200965  0.88651142  0.91385688    -0.75200
O168        O  0.34205023  0.92168887  0.94530528    -0.78600
O169        O  0.25237613  0.03687403  0.96759842    -0.79300
C170        C  0.33109265  0.89019248  0.93360155     0.95900
O171        O  0.33570622  0.98481694  0.89182181    -0.77300
O172        O  0.22422039  0.89452517  0.92660225    -0.82500
C173        C  0.19940324  0.98424985  0.88625177     0.98500
C174        C  0.20458345  0.90111893  0.95504271     1.04500
O175        O  0.20160685  0.99640735  0.91944257    -0.78100
C176        C  0.32471202  0.97220611  0.86080373     1.02800
Fe177      Fe  0.45861152  0.97271351  0.16553866     1.65800
Fe178      Fe  0.41353432  0.91315889  0.22437892     1.73200
Fe179      Fe  0.46690718  0.98515169  0.25953348     1.54400
O180        O  0.51985342  0.99201645  0.23749576    -0.81900
O181        O  0.38079003  0.94019210  0.26314299    -0.80200
O182        O  0.51291570  0.98501368  0.17635391    -0.84400
O183        O  0.44260729  0.02654393  0.17628555    -0.79200
O184        O  0.48517126  0.93674394  0.28605070    -0.81000
O185        O  0.37479109  0.92802619  0.18428408    -0.83700
C186        C  0.44065027  0.04730079  0.20488137     0.97000
C187        C  0.53258519  0.99230049  0.20454317     1.04500
O188        O  0.44638480  0.95700937  0.21659661    -1.12700
O189        O  0.44301016  0.88037635  0.18694269    -0.75200
O190        O  0.47527702  0.91991092  0.15130776    -0.78600
O191        O  0.44974877  0.03652767  0.23757587    -0.79300
C192        C  0.46679607  0.88705612  0.16164289     0.95900
O193        O  0.40660177  0.96386711  0.14537263    -0.77300
O194        O  0.44701847  0.89243426  0.26568914    -0.82500
C195        C  0.38737264  0.96530663  0.28717163     0.98500
C196        C  0.47314885  0.90334918  0.28667164     1.04500
O197        O  0.41772066  0.98296732  0.28840422    -0.78100
C198        C  0.37712644  0.94748312  0.15483039     1.02800
Fe199      Fe  0.66272270  0.02204742  0.03990863     1.65800
Fe200      Fe  0.72457643  0.07186433  0.09116237     1.73200
Fe201      Fe  0.75376286  0.01703289  0.01759925     1.54400
O202        O  0.73069943  0.96385340  0.01220192    -0.81900
O203        O  0.76014251  0.10410071  0.05986261    -0.80200
O204        O  0.67565577  0.96666808  0.03952311    -0.84400
O205        O  0.66909888  0.02519708  0.98287901    -0.79200
O206        O  0.78266722  0.99857196  0.06428915    -0.81000
O207        O  0.68214074  0.10902921  0.07650142    -0.83700
C208        C  0.69434228  0.03086854  0.95892582     0.97000
C209        C  0.70112031  0.94849496  0.02363072     1.04500
O210        O  0.71375696  0.03716061  0.04958401    -1.12700
O211        O  0.69063470  0.04520113  0.12969066    -0.75200
O212        O  0.64861770  0.01581896  0.09526849    -0.78600
O213        O  0.72830193  0.03355694  0.96783824    -0.79300
C214        C  0.66141612  0.02590985  0.12654341     0.95900
O215        O  0.64470723  0.07635767  0.03930005    -0.77300
O216        O  0.76788679  0.03852589  0.10955702    -0.82500
C217        C  0.78237995  0.09781593  0.03345271     0.98500
C218        C  0.78670277  0.01105450  0.09726494     1.04500
O219        O  0.78312873  0.06653443  0.01690613    -0.78100
C220        C  0.65398550  0.10657280  0.05515615     1.02800
Fe221      Fe  0.53202720  0.83149337  0.96988834     1.65800
Fe222      Fe  0.58403992  0.76669688  0.92451890     1.73200
Fe223      Fe  0.51299353  0.73932287  0.98378177     1.54400
O224        O  0.51415976  0.76257097  0.03677633    -0.81900
O225        O  0.55319191  0.72701498  0.89718366    -0.80200
O226        O  0.52500847  0.82278412  0.02590466    -0.84400
O227        O  0.47654533  0.82482499  0.96035983    -0.79200
O228        O  0.55951326  0.70837601  0.99803600    -0.81000
O229        O  0.56732367  0.80472270  0.88349343    -0.83700
C230        C  0.45337517  0.79839994  0.96302390     0.97000
C231        C  0.51759053  0.79598342  0.04784350     1.04500
O232        O  0.54306216  0.77902261  0.95947682    -1.12700
O233        O  0.62109721  0.80437084  0.94792653    -0.75200
O234        O  0.58624433  0.84340409  0.98091251    -0.78600
O235        O  0.46245432  0.76521969  0.97207346    -0.79300
C236        C  0.61750974  0.83149326  0.97029686     0.95900
O237        O  0.53645904  0.84779133  0.91522959    -0.77300
O238        O  0.60524303  0.72692763  0.96043237    -0.82500
C239        C  0.52451933  0.70786530  0.90438110     0.98500
C240        C  0.59270095  0.70645050  0.98654682     1.04500
O241        O  0.50713244  0.71095657  0.93473940    -0.78100
C242        C  0.54874615  0.83479989  0.88491083     1.02800
Fe243      Fe  0.51924863  0.03504885  0.82335514     1.65800
Fe244      Fe  0.56994312  0.08865633  0.76378834     1.73200
Fe245      Fe  0.51402212  0.01770122  0.72982530     1.54400
O246        O  0.52457359  0.96592848  0.75503246    -0.81900
O247        O  0.53484111  0.11297375  0.72494379    -0.80200
O248        O  0.52730926  0.97895485  0.81592045    -0.84400
O249        O  0.46429834  0.02958474  0.81026541    -0.79200
O250        O  0.56415837  0.01359950  0.70275425    -0.81000
O251        O  0.54734116  0.12416106  0.80365603    -0.83700
C252        C  0.44583662  0.02072053  0.78159830     0.97000
C253        C  0.52822740  0.95604502  0.78905506     1.04500
O254        O  0.53444588  0.04700073  0.77217785    -1.12700
O255        O  0.60831851  0.06756566  0.80199574    -0.75200
O256        O  0.57262856  0.03804098  0.84334003    -0.78600
O257        O  0.46031874  0.01621881  0.74977987    -0.79300
C258        C  0.60411890  0.04889605  0.83200036     0.95900
O259        O  0.50840762  0.08953659  0.83685949    -0.77300
O260        O  0.59870224  0.06093768  0.72252507    -0.82500
C261        C  0.51053138  0.10065808  0.70235811     0.98500
C262        C  0.59365016  0.03268381  0.70199713     1.04500
O263        O  0.50091353  0.06643453  0.70094775    -0.78100
C264        C  0.52294064  0.12069318  0.82879917     1.02800
Fe265      Fe  0.04917597  0.46008226  0.15937948     1.65800
Fe266      Fe  0.07472680  0.39524651  0.22382336     1.73200
Fe267      Fe  0.02355233  0.47268330  0.24977897     1.54400
O268        O  0.04628550  0.52295446  0.23252563    -0.81900
O269        O  0.03656752  0.38029717  0.26414135    -0.80200
O270        O  0.06392629  0.51377494  0.17362539    -0.84400
O271        O  0.99494335  0.47426405  0.15971082    -0.79200
O272        O  0.06792850  0.46633087  0.28593097    -0.81000
O273        O  0.04370407  0.36540480  0.18510611    -0.83700
C274        C  0.97105125  0.48501682  0.18280298     0.97000
C275        C  0.05975189  0.53458139  0.20194766     1.04500
O276        O  0.04902850  0.44270628  0.21106600    -1.12700
O277        O  0.11848359  0.40074125  0.18585001    -0.75200
O278        O  0.10369362  0.44976281  0.15104297    -0.78600
O279        O  0.97643396  0.48387935  0.21786996    -0.79300
C280        C  0.12604220  0.42441880  0.16053961     0.95900
O281        O  0.03335397  0.40805047  0.14025448    -0.77300
O282        O  0.10646655  0.42274678  0.26317923    -0.82500
C283        C  0.00786055  0.39411982  0.27897716     0.98500
C284        C  0.09861911  0.44887159  0.28587912     1.04500
O285        O  0.99698661  0.42710103  0.27233256    -0.78100
C286        C  0.03026268  0.37514510  0.15360597     1.02800
Fe287      Fe  0.95306407  0.33159427  0.95404054     1.65800
Fe288      Fe  0.89095003  0.27020317  0.91704777     1.73200
Fe289      Fe  0.96602858  0.23864468  0.96898960     1.54400
O290        O  0.01733826  0.26220392  0.95627565    -0.81900
O291        O  0.87127714  0.23081224  0.95385144    -0.80200
O292        O  0.00636473  0.32084028  0.93822027    -0.84400
O293        O  0.96611821  0.32294865  0.00915544    -0.79200
O294        O  0.96699195  0.21135023  0.91856995    -0.81000
O295        O  0.85955308  0.30995360  0.94597974    -0.83700
C296        C  0.97060194  0.29607740  0.03193602     0.97000
C297        C  0.02811860  0.29370960  0.94395531     1.04500
O298        O  0.93657361  0.27997442  0.94673498    -1.12700
O299        O  0.90377948  0.30776047  0.87462963    -0.75200
O300        O  0.94343045  0.34760669  0.89999729    -0.78600
O301        O  0.96828704  0.26207220  0.02209136    -0.79300
C302        C  0.92454666  0.33619057  0.87261424     0.95900
O303        O  0.90147734  0.34794769  0.97094561    -0.77300
O304        O  0.91713498  0.22903721  0.88588027    -0.82500
C305        C  0.88575763  0.20810232  0.97680673     0.98500
C306        C  0.94621406  0.20929325  0.88989925     1.04500
O307        O  0.91989095  0.20834974  0.98514426    -0.78100
C308        C  0.86814372  0.33782592  0.96621333     1.02800
Fe309      Fe  0.16463477  0.46015148  0.96140354     1.65800
Fe310      Fe  0.22053817  0.42081812  0.89586421     1.73200
Fe311      Fe  0.25746675  0.47352991  0.96730354     1.54400
O312        O  0.23510987  0.52664583  0.97014695    -0.81900
O313        O  0.26385562  0.39040729  0.91871360    -0.80200
O314        O  0.17530025  0.51470848  0.97676457    -0.84400
O315        O  0.17907396  0.44063661  0.01323125    -0.79200
O316        O  0.28286876  0.49014621  0.91759977    -0.81000
O317        O  0.18500759  0.37848409  0.91265810    -0.83700
C318        C  0.20743704  0.44534756  0.03349437     0.97000
C319        C  0.20247838  0.53713260  0.97722693     1.04500
O320        O  0.21436487  0.45135482  0.94147616    -1.12700
O321        O  0.17823683  0.44868828  0.86792575    -0.75200
O322        O  0.14619224  0.48002488  0.91079960    -0.78600
O323        O  0.23748731  0.45941317  0.02098426    -0.79300
C324        C  0.15278365  0.47140757  0.87708019     0.95900
O325        O  0.14543193  0.40723970  0.95013075    -0.77300
O326        O  0.25683397  0.45791286  0.87191931    -0.82500
C327        C  0.28591524  0.39509399  0.94596855     0.98500
C328        C  0.27973564  0.48207559  0.88309652     1.04500
O329        O  0.28531816  0.42372240  0.96672639    -0.78100
C330        C  0.15613936  0.37858321  0.93260879     1.02800
Fe331      Fe  0.04024889  0.66581880  0.04206871     1.65800
Fe332      Fe  0.10119491  0.72967876  0.07523521     1.73200
Fe333      Fe  0.02564684  0.75713837  0.02207341     1.54400
O334        O  0.02442091  0.73162044  0.97004961    -0.81900
O335        O  0.07530707  0.77334399  0.10302828    -0.80200
O336        O  0.02011783  0.67265572  0.98891860    -0.84400
O337        O  0.98871580  0.67682158  0.06317409    -0.79200
O338        O  0.07138971  0.78810709  0.00474602    -0.81000
O339        O  0.08908864  0.69568753  0.12039960    -0.83700
C340        C  0.96537168  0.70135639  0.05299625     0.97000
C341        C  0.01604524  0.69776642  0.96417378     1.04500
O342        O  0.05580875  0.71779810  0.04658006    -1.12700
O343        O  0.13203462  0.68753176  0.04936344    -0.75200
O344        O  0.09052850  0.65144161  0.02038569    -0.78600
O345        O  0.97491218  0.73121450  0.03578145    -0.79300
C346        C  0.12369313  0.66122769  0.02694859     0.95900
O347        O  0.05675185  0.64990158  0.09457663    -0.77300
O348        O  0.12031397  0.76542254  0.03523275    -0.82500
C349        C  0.04562748  0.79205349  0.09828839     0.98500
C350        C  0.10584865  0.78774293  0.01193145     1.04500
O351        O  0.02361080  0.78707622  0.07102567    -0.78100
C352        C  0.07383081  0.66395942  0.12190136     1.02800
Fe353      Fe  0.95180270  0.53200086  0.82973992     1.65800
Fe354      Fe  0.91230726  0.59622357  0.77133445     1.73200
Fe355      Fe  0.96813992  0.52625005  0.73621361     1.54400
O356        O  0.01897928  0.52023259  0.76299637    -0.81900
O357        O  0.88292447  0.57097478  0.72907910    -0.80200
O358        O  0.00779950  0.52955430  0.82342356    -0.84400
O359        O  0.94608995  0.47731902  0.81427696    -0.79200
O360        O  0.98722339  0.57585549  0.71378268    -0.81000
O361        O  0.87109683  0.57766844  0.80812405    -0.83700
C362        C  0.94607454  0.45861513  0.78440603     0.97000
C363        C  0.02971513  0.52348694  0.79663162     1.04500
O364        O  0.94410866  0.55156472  0.77900925    -1.12700
O365        O  0.93765432  0.62722427  0.81308919    -0.75200
O366        O  0.95881292  0.58378541  0.85236719    -0.78600
O367        O  0.95183399  0.47304274  0.75256998    -0.79300
C368        C  0.95259645  0.61749196  0.84371086     0.95900
O369        O  0.89654875  0.53225779  0.84216085    -0.77300
O370        O  0.94884946  0.62028901  0.73331115    -0.82500
C371        C  0.88994875  0.54578509  0.70538569     0.98500
C372        C  0.97625421  0.60950873  0.71377479     1.04500
O373        O  0.92069220  0.52863399  0.70433148    -0.78100
C374        C  0.86891347  0.55197433  0.83279419     1.02800
Fe375      Fe  0.82146856  0.54245432  0.02601774     1.65800
Fe376      Fe  0.76643177  0.57870343  0.09357935     1.73200
Fe377      Fe  0.73046119  0.52210475  0.02408966     1.54400
O378        O  0.75029256  0.52906819  0.96957936    -0.81900
O379        O  0.73147026  0.54074876  0.11924134    -0.80200
O380        O  0.80332776  0.55991603  0.97478142    -0.84400
O381        O  0.81330273  0.48650491  0.01358976    -0.79200
O382        O  0.70255236  0.57203727  0.02031543    -0.81000
O383        O  0.81114389  0.55400084  0.12131074    -0.83700
C384        C  0.78838661  0.46184637  0.01816145     0.97000
C385        C  0.77781286  0.54589493  0.95526241     1.04500
O386        O  0.77272075  0.54777218  0.04835887    -1.12700
O387        O  0.80120051  0.62231009  0.07660553    -0.75200
O388        O  0.83889348  0.59628815  0.03539834    -0.78600
O389        O  0.75526541  0.47000951  0.02648985    -0.79300
C390        C  0.82956332  0.62343395  0.05575210     0.95900
O391        O  0.84347018  0.52622349  0.07582319    -0.77300
O392        O  0.72168964  0.60622298  0.06922302    -0.82500
C393        C  0.70728583  0.51779280  0.10781122     0.98500
C394        C  0.70098492  0.60099577  0.04080465     1.04500
O395        O  0.70366561  0.50971458  0.07361450    -0.78100
C396        C  0.83877715  0.53522787  0.10974400     1.02800
Fe397      Fe  0.51187970  0.45522380  0.32600213     1.65800
Fe398      Fe  0.56847067  0.40675488  0.26736968     1.73200
Fe399      Fe  0.51099539  0.47688387  0.23344487     1.54400
O400        O  0.45621260  0.47754534  0.25262250    -0.81900
O401        O  0.59911975  0.43789505  0.23010050    -0.80200
O402        O  0.45743079  0.45373279  0.31007451    -0.84400
O403        O  0.51304722  0.51205674  0.32007413    -0.79200
O404        O  0.49916328  0.42862897  0.20310375    -0.81000
O405        O  0.60283601  0.42694897  0.30944641    -0.83700
C406        C  0.51770449  0.53631621  0.29467555     0.97000
C407        C  0.43994085  0.46685656  0.28227147     1.04500
O408        O  0.53056394  0.44629166  0.27545471    -1.12700
O409        O  0.54468584  0.36770321  0.30317557    -0.75200
O410        O  0.50696823  0.40020787  0.33941896    -0.78600
O411        O  0.52113240  0.52775255  0.26037282    -0.79300
C412        C  0.52134668  0.36978904  0.32939083     0.95900
O413        O  0.56469642  0.45777262  0.34746012    -0.77300
O414        O  0.53762644  0.38409667  0.22447738    -0.82500
C415        C  0.59318705  0.46573449  0.20902833     0.98500
C416        C  0.51232111  0.39547188  0.20240166     1.04500
O417        O  0.56219475  0.48239570  0.20766389    -0.78100
C418        C  0.59686948  0.44695928  0.33809838     1.02800
Fe419      Fe  0.54095899  0.67107103  0.47047156     1.65800
Fe420      Fe  0.58417436  0.73359322  0.41476930     1.73200
Fe421      Fe  0.51164469  0.76117781  0.47152871     1.54400
O422        O  0.46399022  0.72975250  0.46046105    -0.81900
O423        O  0.60492135  0.77369515  0.44978362    -0.80200
O424        O  0.48547868  0.67122805  0.46184772    -0.84400
O425        O  0.53392413  0.68559006  0.52533253    -0.79200
O426        O  0.50502688  0.78720963  0.42105470    -0.81000
O427        O  0.62354358  0.69646176  0.43637544    -0.83700
C428        C  0.52010945  0.71302805  0.54260603     0.97000
C429        C  0.45917907  0.69442257  0.45954123     1.04500
O430        O  0.54530538  0.72217540  0.45210817    -1.12700
O431        O  0.56440015  0.69377507  0.37767739    -0.75200
O432        O  0.54630290  0.64923117  0.41738641    -0.78600
O433        O  0.51112013  0.74303027  0.52627685    -0.79300
C434        C  0.55160835  0.66133066  0.38434342     0.95900
O435        O  0.59581109  0.66595569  0.48239285    -0.77300
O436        O  0.55364327  0.77331572  0.38614562    -0.82500
C437        C  0.59120972  0.79469336  0.47484995     0.98500
C438        C  0.52381826  0.79092250  0.39167701     1.04500
O439        O  0.55721163  0.79408794  0.48448068    -0.78100
C440        C  0.62441711  0.67439995  0.46419927     1.02800
Fe441      Fe  0.32301271  0.52273744  0.44601943     1.65800
Fe442      Fe  0.26220129  0.57384449  0.39691962     1.73200
Fe443      Fe  0.23323635  0.52206678  0.47240453     1.54400
O444        O  0.24900327  0.46654505  0.47236754    -0.81900
O445        O  0.22109188  0.60418133  0.42469776    -0.80200
O446        O  0.30970143  0.47008570  0.46453940    -0.84400
O447        O  0.32327795  0.54298440  0.49946564    -0.79200
O448        O  0.19903890  0.50957266  0.42692692    -0.81000
O449        O  0.29992428  0.61262283  0.41673101    -0.83700
C450        C  0.29928838  0.54214202  0.52532865     0.97000
C451        C  0.28069060  0.45167722  0.47152375     1.04500
O452        O  0.27239047  0.53951873  0.43874366    -1.12700
O453        O  0.30172169  0.54856351  0.36119194    -0.75200
O454        O  0.32502269  0.50114065  0.39359617    -0.78600
O455        O  0.26550361  0.53281171  0.52008992    -0.79300
C456        C  0.32057040  0.51834654  0.36296414     0.95900
O457        O  0.34546769  0.57255896  0.42789046    -0.77300
O458        O  0.22377457  0.53698674  0.37668454    -0.82500
C459        C  0.20521209  0.60159963  0.45624857     0.98500
C460        C  0.20053079  0.51475072  0.39164869     1.04500
O461        O  0.21086430  0.57444340  0.47821524    -0.78100
C462        C  0.33305727  0.60570469  0.42611419     1.02800
Fe463      Fe  0.47238414  0.54863822  0.66572741     1.65800
Fe464      Fe  0.42055308  0.60102980  0.72495830     1.73200
Fe465      Fe  0.47143577  0.52533801  0.75822261     1.54400
O466        O  0.46225075  0.47560069  0.72923312    -0.81900
O467        O  0.45307995  0.62038089  0.76765293    -0.80200
O468        O  0.46160645  0.49303713  0.66932264    -0.84400
O469        O  0.52633867  0.54021260  0.68250728    -0.79200
O470        O  0.41894530  0.52107270  0.78048264    -0.81000
O471        O  0.44876285  0.63809134  0.68967664    -0.83700
C472        C  0.54325063  0.52966201  0.71182227     0.97000
C473        C  0.46074639  0.46819435  0.69453716     1.04500
O474        O  0.45464189  0.55819427  0.71642498    -1.12700
O475        O  0.38459614  0.58595459  0.68254335    -0.75200
O476        O  0.42056064  0.55549118  0.64227123    -0.78600
O477        O  0.52682112  0.52421106  0.74259668    -0.79300
C478        C  0.38965851  0.56932283  0.65177191     0.95900
O479        O  0.48623910  0.60280658  0.65574972    -0.77300
O480        O  0.38715497  0.57140339  0.76210745    -0.82500
C481        C  0.47534376  0.60565126  0.79085809     0.98500
C482        C  0.39025291  0.54148316  0.78113848     1.04500
O483        O  0.48340630  0.57104474  0.79146412    -0.78100
C484        C  0.47444303  0.63438898  0.66580204     1.02800
Fe485      Fe  0.44426047  0.33337803  0.52280275     1.65800
Fe486      Fe  0.39639965  0.27184180  0.57473526     1.73200
Fe487      Fe  0.46997782  0.24228608  0.52149952     1.54400
O488        O  0.47220517  0.25990443  0.46664908    -0.81900
O489        O  0.42323375  0.22940237  0.60358655    -0.80200
O490        O  0.45988452  0.32056531  0.46914697    -0.84400
O491        O  0.49841334  0.33258688  0.53971547    -0.79200
O492        O  0.42373609  0.20985740  0.50767793    -0.81000
O493        O  0.41750559  0.30877384  0.61360696    -0.83700
C494        C  0.52357103  0.30777038  0.54054530     0.97000
C495        C  0.47004301  0.29179400  0.45156029     1.04500
O496        O  0.43724700  0.28213226  0.53961315    -1.12700
O497        O  0.36097944  0.31252452  0.55213974    -0.75200
O498        O  0.39100684  0.33700959  0.50405949    -0.78600
O499        O  0.51781248  0.27319171  0.53377562    -0.79300
C500        C  0.36156920  0.33224863  0.52253337     0.95900
O501        O  0.43020839  0.35514389  0.57418638    -0.77300
O502        O  0.37467610  0.23425175  0.53760260    -0.82500
C503        C  0.45369887  0.21232740  0.60027282     0.98500
C504        C  0.38893226  0.21185575  0.51418051     1.04500
O505        O  0.47485989  0.21729274  0.57270189    -0.78100
C506        C  0.42778965  0.34203945  0.60715610     1.02800
Fe507      Fe  0.66155023  0.48786603  0.54475144     1.65800
Fe508      Fe  0.72119278  0.43177103  0.59379006     1.73200
Fe509      Fe  0.75161303  0.48484984  0.51883506     1.54400
O510        O  0.72300133  0.46948674  0.47075652    -0.81900
O511        O  0.76520905  0.46377234  0.61167761    -0.80200
O512        O  0.66501433  0.48252196  0.48766079    -0.84400
O513        O  0.67845492  0.54305386  0.54140663    -0.79200
O514        O  0.77861923  0.43430552  0.51801548    -0.81000
O515        O  0.68830657  0.45928728  0.63318336    -0.83700
C516        C  0.70445622  0.55756346  0.52262336     0.97000
C517        C  0.68887479  0.47413436  0.46307729     1.04500
O518        O  0.71147172  0.46784138  0.55243397    -1.12700
O519        O  0.67727842  0.39720824  0.57890423    -0.75200
O520        O  0.63869913  0.43490688  0.54746617    -0.78600
O521        O  0.73220476  0.53891005  0.51191582    -0.79300
C522        C  0.64740855  0.40308278  0.56085091     0.95900
O523        O  0.65163858  0.49662996  0.60011347    -0.77300
O524        O  0.75638624  0.39770000  0.56264043    -0.82500
C525        C  0.78504801  0.48992696  0.59809141     0.98500
C526        C  0.77809260  0.40344366  0.53540062     1.04500
O527        O  0.78236378  0.50165876  0.56453834    -0.78100
C528        C  0.66306181  0.48391106  0.63100874     1.02800
C529        C  0.60555555  0.35393437  0.58643946    -0.06000
C530        C  0.62092569  0.37195759  0.55512356     0.00000
C531        C  0.60848050  0.36215461  0.51890003    -0.08600
C532        C  0.57894341  0.33700092  0.51528958    -0.06000
C533        C  0.56135747  0.32177696  0.54659944    -0.00100
C534        C  0.57549116  0.32898882  0.58269512    -0.08500
C535        C  0.55822971  0.31077844  0.61677643     0.61900
H536        H  0.61582327  0.36116161  0.61391568     0.12500
H537        H  0.56749131  0.33118863  0.48791089     0.12600
C538        C  0.62641309  0.37816061  0.48416039     0.62100
F539        F  0.52142695  0.32080171  0.61957405    -0.23100
F540        F  0.57597868  0.32120275  0.64939688    -0.20400
F541        F  0.56054782  0.27233948  0.61352459    -0.20100
F542        F  0.61410354  0.36074355  0.45205542    -0.20100
F543        F  0.66416859  0.37298604  0.48671076    -0.20500
F544        F  0.61856012  0.41583091  0.48082172    -0.23100
C545        C  0.43103904  0.40533017  0.69275318    -0.06000
C546        C  0.45961049  0.42934530  0.68108447     0.00000
C547        C  0.48220827  0.41878718  0.65054453    -0.08600
C548        C  0.47138600  0.38862720  0.62888303    -0.06000
C549        C  0.44016269  0.36719454  0.63740719    -0.00100
C550        C  0.42135619  0.37343610  0.67155109    -0.08500
C551        C  0.39063949  0.34781178  0.68463754     0.61900
H552        H  0.41472257  0.41316524  0.71680328     0.12500
H553        H  0.48703459  0.38261049  0.60378419     0.12600
C554        C  0.51685393  0.43923431  0.63779693     0.62100
F555        F  0.37669644  0.35868775  0.71888998    -0.23100
F556        F  0.40416630  0.31182886  0.68844933    -0.20400
F557        F  0.36200956  0.34802310  0.65901540    -0.20100
F558        F  0.52854298  0.46600446  0.66253558    -0.20100
F559        F  0.51016654  0.45618907  0.60364577    -0.20500
F560        F  0.54548557  0.41385111  0.63381223    -0.23100
C561        C  0.60444088  0.54749568  0.68814596    -0.06000
C562        C  0.58325204  0.52126645  0.70772108     0.00000
C563        C  0.59744241  0.48449066  0.71241545    -0.08600
C564        C  0.62743287  0.47310947  0.68976694    -0.06000
C565        C  0.64434369  0.49832250  0.66493115    -0.00100
C566        C  0.63575196  0.53680830  0.66784842    -0.08500
C567        C  0.65620278  0.56620762  0.64568060     0.61900
H568        H  0.59467144  0.57604965  0.68625956     0.12500
H569        H  0.63557112  0.44396831  0.68898180     0.05400
C570        C  0.58055719  0.45740982  0.74030951     0.62100
F571        F  0.65528245  0.60025440  0.66388820    -0.23100
F572        F  0.63959025  0.57016519  0.61109009    -0.20400
F573        F  0.69292557  0.55616157  0.64129554    -0.20100
F574        F  0.54415933  0.44977614  0.73139255    -0.20100
F575        F  0.58192208  0.47305727  0.77552164    -0.20500
F576        F  0.59969549  0.42388173  0.74147255    -0.23100
C577        C  0.32510160  0.58726744  0.57044308    -0.06000
C578        C  0.31291582  0.55073100  0.56320174     0.00000
C579        C  0.32154646  0.52162585  0.58868793    -0.08600
C580        C  0.34449395  0.52951778  0.61940334    -0.06000
C581        C  0.35873411  0.56544011  0.62517884    -0.00100
C582        C  0.34779930  0.59522261  0.60146084    -0.08500
C583        C  0.36174220  0.63467244  0.60797759     0.61900
H584        H  0.31852722  0.60905580  0.55037348     0.12500
H585        H  0.35335313  0.50720415  0.63794426     0.12600
C586        C  0.30880149  0.48189458  0.58178140     0.62100
F587        F  0.34791708  0.65961613  0.58174654    -0.23100
F588        F  0.39994714  0.63538078  0.60604911    -0.20400
F589        F  0.35082056  0.64655230  0.64295087    -0.20100
F590        F  0.32369517  0.46916373  0.54868333    -0.20100
F591        F  0.27060077  0.48102437  0.57955267    -0.20500
F592        F  0.31974608  0.45780618  0.61010271    -0.23100
C593        C  0.28219265  0.40132459  0.51818276    -0.06000
C594        C  0.28546436  0.41179041  0.48056562     0.00000
C595        C  0.30417501  0.38786084  0.45571281    -0.08600
C596        C  0.32517301  0.35838217  0.47045294    -0.06000
C597        C  0.32809083  0.35244239  0.50912941    -0.00100
C598        C  0.30361310  0.37187828  0.53323847    -0.08500
C599        C  0.30236216  0.36409799  0.57485557     0.61900
H600        H  0.26643415  0.41923884  0.53652285     0.12500
H601        H  0.34201842  0.34188314  0.45167865     0.12600
C602        C  0.30458480  0.39350149  0.41380448     0.62100
F603        F  0.27558806  0.38529116  0.59251597    -0.23100
F604        F  0.33622756  0.37249077  0.59074188    -0.20400
F605        F  0.29409498  0.32682352  0.58100239    -0.20100
F606        F  0.34055668  0.39974747  0.40235006    -0.20100
F607        F  0.28268401  0.42312664  0.40223206    -0.20500
F608        F  0.29150547  0.36149458  0.39675083    -0.23100
C609        C  0.66857351  0.65585203  0.51327692    -0.06000
C610        C  0.65879571  0.65496582  0.47537375     0.00000
C611        C  0.67489828  0.62767142  0.45207842    -0.08600
C612        C  0.69528318  0.59846790  0.46865810    -0.06000
C613        C  0.69915314  0.59578369  0.50760080    -0.00100
C614        C  0.68894328  0.62668458  0.52984104    -0.08500
C615        C  0.69877753  0.63032600  0.57067590     0.61900
H616        H  0.65752717  0.67785853  0.53074042     0.12500
H617        H  0.70415126  0.57510181  0.45174311     0.12600
C618        C  0.66637100  0.62665056  0.41077696     0.62100
F619        F  0.66685107  0.63501903  0.59128079    -0.23100
F620        F  0.72079705  0.66157298  0.57533803    -0.20400
F621        F  0.71800119  0.59968575  0.58414884    -0.20100
F622        F  0.67556957  0.66053412  0.39453774    -0.20100
F623        F  0.62899781  0.61997816  0.40599990    -0.20500
F624        F  0.68606201  0.59890963  0.39271810    -0.23100
C625        C  0.39791627  0.68987980  0.42765896    -0.06000
C626        C  0.42189992  0.67790075  0.45632223     0.00000
C627        C  0.41202304  0.64655452  0.47875215    -0.08600
C628        C  0.38040996  0.62642078  0.46932616    -0.06000
C629        C  0.35889605  0.63542712  0.43801380    -0.00100
C630        C  0.36613865  0.66888953  0.41800332    -0.08500
C631        C  0.34143118  0.68150269  0.38613113     0.61900
H632        H  0.40555608  0.71426158  0.41136410     0.12500
H633        H  0.37360304  0.60144930  0.48514159     0.12600
C634        C  0.43560829  0.63216033  0.51116808     0.62100
F635        F  0.35392430  0.71439007  0.36997969    -0.23100
F636        F  0.30604143  0.68764498  0.39937674    -0.20400
F637        F  0.34032813  0.65435473  0.35884157    -0.20100
F638        F  0.44737608  0.66144723  0.53306761    -0.20100
F639        F  0.46599467  0.61295453  0.49779686    -0.20500
F640        F  0.41598008  0.60788055  0.53390909    -0.23100
C641        C  0.46669806  0.69382308  0.63064795    -0.06000
C642        C  0.49070091  0.66723322  0.64656123     0.00000
C643        C  0.52828385  0.66684140  0.63523390    -0.08600
C644        C  0.53833284  0.68642955  0.60298871    -0.06000
C645        C  0.51255247  0.70769200  0.58287960    -0.00100
C646        C  0.47735608  0.71494607  0.59900204    -0.08500
C647        C  0.45061011  0.74319957  0.58214766     0.61900
H648        H  0.43844912  0.69517162  0.64061123     0.12500
H649        H  0.56597605  0.68271728  0.59178459     0.12600
C650        C  0.55819115  0.64406242  0.65438558     0.62100
F651        F  0.41910783  0.74710202  0.60372209    -0.23100
F652        F  0.43972251  0.73242119  0.54680605    -0.20400
F653        F  0.46767109  0.77773295  0.57994143    -0.20100
F654        F  0.56902537  0.61535978  0.63108814    -0.20100
F655        F  0.54664987  0.62919785  0.68805132    -0.20500
F656        F  0.58841345  0.66669822  0.66148562    -0.23100
C657        C  0.65646423  0.43297953  0.37119200    -0.06000
C658        C  0.62811312  0.45857588  0.36236404     0.00000
C659        C  0.62759061  0.49361977  0.38060753    -0.08600
C660        C  0.64926303  0.49821347  0.41266730    -0.06000
C661        C  0.67467596  0.47084370  0.42436131    -0.00100
C662        C  0.68119261  0.43957620  0.40115418    -0.08500
C663        C  0.71397118  0.41387042  0.40769002     0.61900
H664        H  0.65823313  0.40725168  0.35550266     0.12500
H665        H  0.64613195  0.52350626  0.42897457     0.12600
C666        C  0.60499482  0.52690666  0.36717537     0.62100
F667        F  0.74630823  0.43414955  0.40374506    -0.23100
F668        F  0.71466462  0.38480478  0.38234035    -0.20400
F669        F  0.71297138  0.39870523  0.44312860    -0.20100
F670        F  0.62711663  0.55830497  0.36670205    -0.20100
F671        F  0.57561888  0.53288313  0.39111180    -0.20500
F672        F  0.59187108  0.52247627  0.33123012    -0.23100
C673        C  0.52086698  0.29917703  0.40680741    -0.06000
C674        C  0.48251237  0.29701937  0.41277645     0.00000
C675        C  0.45796138  0.30948923  0.38468086    -0.08600
C676        C  0.47229876  0.32985244  0.35448008    -0.06000
C677        C  0.51040260  0.33651153  0.35102402    -0.00100
C678        C  0.53540601  0.31880711  0.37594692    -0.08500
C679        C  0.57694512  0.32342097  0.37168543     0.61900
H680        H  0.53928435  0.28885629  0.42845374     0.12500
H681        H  0.45338600  0.34315640  0.33496048     0.12600
C682        C  0.41647552  0.30500562  0.38784497     0.62100
F683        F  0.59629774  0.30333760  0.39851160    -0.23100
F684        F  0.58651257  0.36070656  0.37493274    -0.20400
F685        F  0.58766840  0.31062723  0.33697759    -0.20100
F686        F  0.40128839  0.33744483  0.40195114    -0.20100
F687        F  0.40733777  0.27529162  0.41090176    -0.20500
F688        F  0.40133139  0.29814973  0.35300236    -0.23100
C689        C  0.55096466  0.59714604  0.29905314    -0.06000
C690        C  0.51959261  0.57558497  0.30753971     0.00000
C691        C  0.49517585  0.58806551  0.33578949    -0.08600
C692        C  0.50641798  0.61707957  0.35913999    -0.06000
C693        C  0.53982586  0.63619396  0.35356071    -0.00100
C694        C  0.56104339  0.62824872  0.32120165    -0.08500
C695        C  0.59463517  0.65131270  0.31086803     0.61900
H696        H  0.56893752  0.58785396  0.27679282     0.12500
H697        H  0.48900460  0.62449742  0.38263339     0.12600
C698        C  0.45784115  0.57032016  0.34345849     0.62100
F699        F  0.61138226  0.63837785  0.27869200    -0.23100
F700        F  0.62036350  0.65005464  0.33932454    -0.20400
F701        F  0.58407573  0.68799433  0.30474162    -0.20100
F702        F  0.46006152  0.54818714  0.37515396    -0.20100
F703        F  0.44599118  0.54886324  0.31387865    -0.20500
F704        F  0.43157237  0.59789469  0.34912908    -0.23100
C705        C  0.34975191  0.46431782  0.33160345    -0.06000
C706        C  0.34056233  0.50255463  0.32991831     0.00000
C707        C  0.35622952  0.52451473  0.30077659    -0.08600
C708        C  0.38547931  0.50912551  0.27950231    -0.06000
C709        C  0.39956294  0.47326326  0.28735010    -0.00100
C710        C  0.37861286  0.44915595  0.31039781    -0.08500
C711        C  0.38840617  0.40829435  0.31597346     0.61900
H712        H  0.33588465  0.44653947  0.35162247     0.12500
H713        H  0.40063134  0.52678097  0.26024003     0.12600
C714        C  0.34447318  0.56462368  0.29393981     0.62100
F715        F  0.35648391  0.38696142  0.31700725    -0.23100
F716        F  0.40717666  0.40388792  0.34940214    -0.20400
F717        F  0.41017904  0.39505552  0.28715530    -0.20100
F718        F  0.35387332  0.58625125  0.32437642    -0.20100
F719        F  0.30662042  0.56610446  0.28822227    -0.20500
F720        F  0.36143471  0.57974774  0.26271411    -0.23100
C721        C  0.66657112  0.52639957  0.16261530    -0.06000
C722        C  0.68053811  0.50206235  0.13529631     0.00000
C723        C  0.66751351  0.46460062  0.13425155    -0.08600
C724        C  0.63953794  0.45364763  0.15944781    -0.06000
C725        C  0.62380655  0.47889605  0.18479712    -0.00100
C726        C  0.63834609  0.51546616  0.18739621    -0.08500
C727        C  0.62430609  0.54271506  0.21646489     0.61900
H728        H  0.67696327  0.55477902  0.16350004     0.12500
H729        H  0.62911751  0.42532800  0.15898059     0.12600
C730        C  0.68333535  0.43603561  0.10733302     0.62100
F731        F  0.64650614  0.57414730  0.21875131    -0.23100
F732        F  0.62393813  0.52578030  0.25129496    -0.20400
F733        F  0.58885235  0.55402463  0.20722490    -0.20100
F734        F  0.72159178  0.43640432  0.10911146    -0.20100
F735        F  0.67206387  0.44421940  0.07129028    -0.20500
F736        F  0.67160633  0.40012614  0.11577577    -0.23100
C737        C  0.87395752  0.52553668  0.64168403    -0.06000
C738        C  0.86150894  0.53546130  0.67745592     0.00000
C739        C  0.82331179  0.53218598  0.68620087    -0.08600
C740        C  0.79918698  0.51846913  0.65868222    -0.06000
C741        C  0.81192188  0.50768203  0.62337507    -0.00100
C742        C  0.84985974  0.51129713  0.61444451    -0.08500
C743        C  0.86523647  0.49831857  0.57723372     0.61900
H744        H  0.90314857  0.52832268  0.63546159     0.12500
H745        H  0.76996527  0.51540551  0.66470101     0.12600
C746        C  0.80802946  0.54137449  0.72462797     0.62100
F747        F  0.90343449  0.50105702  0.57594953    -0.23100
F748        F  0.85094830  0.52003672  0.54860154    -0.20400
F749        F  0.85585813  0.46130043  0.57144087    -0.20100
F750        F  0.81115390  0.57930978  0.73114463    -0.20100
F751        F  0.82731218  0.52172369  0.75177963    -0.20500
F752        F  0.77099799  0.53194711  0.72784849    -0.23100
C753        C  0.81171483  0.57730198  0.86223044    -0.06000
C754        C  0.83388253  0.54606209  0.85395587     0.00000
C755        C  0.82586255  0.51153413  0.87212297    -0.08600
C756        C  0.80211619  0.51152393  0.90298449    -0.06000
C757        C  0.78464875  0.54418673  0.91487124    -0.00100
C758        C  0.78658362  0.57659930  0.89227190    -0.08500
C759        C  0.76323546  0.61090913  0.89941577     0.61900
H760        H  0.81597142  0.60330459  0.84718811     0.12500
H761        H  0.79988940  0.48644370  0.92003040     0.12600
C762        C  0.84352784  0.47464526  0.86182056     0.62100
F763        F  0.74320163  0.61937625  0.86748690    -0.23100
F764        F  0.78588288  0.64079793  0.90797189    -0.20400
F765        F  0.73840814  0.60552981  0.92830395    -0.20100
F766        F  0.81773246  0.44625899  0.86522732    -0.20100
F767        F  0.87281963  0.46720424  0.88568695    -0.20500
F768        F  0.85579577  0.47480787  0.82533224    -0.23100
C769        C  0.87857148  0.65547885  0.09084431    -0.06000
C770        C  0.85641282  0.65477799  0.05859319     0.00000
C771        C  0.86684606  0.67685930  0.02739176    -0.08600
C772        C  0.90135200  0.69549286  0.02801474    -0.06000
C773        C  0.92547756  0.69247862  0.05879270    -0.00100
C774        C  0.91273615  0.67441835  0.09170103    -0.08500
C775        C  0.93627101  0.67180484  0.12676034     0.61900
H776        H  0.87057954  0.63835228  0.11456227     0.12500
H777        H  0.91088560  0.71018157  0.00333002     0.12600
C778        C  0.84134859  0.68095387  0.99393114     0.62100
F779        F  0.91421452  0.66826847  0.15812583    -0.23100
F780        F  0.95760702  0.70362483  0.13111594    -0.20400
F781        F  0.95913484  0.64087423  0.12465814    -0.20100
F782        F  0.80850413  0.69683804  0.00546245    -0.20100
F783        F  0.83407133  0.64653484  0.97819006    -0.20500
F784        F  0.85643082  0.70379501  0.96661809    -0.23100
C785        C  0.96486151  0.66374172  0.93656153    -0.06000
C786        C  0.99612365  0.68603343  0.93000203     0.00000
C787        C  0.00797436  0.69229332  0.89279230    -0.08600
C788        C  0.99119095  0.67130887  0.86396860    -0.06000
C789        C  0.96278852  0.64561370  0.87174542    -0.00100
C790        C  0.94787386  0.64337832  0.90815494    -0.08500
C791        C  0.91437895  0.61924119  0.91730638     0.61900
H792        H  0.95488502  0.66085491  0.96494606     0.12500
H793        H  0.00149677  0.67317583  0.83565195     0.12600
C794        C  0.03847704  0.71979874  0.88370242     0.62100
F795        F  0.90225547  0.62485993  0.95346410    -0.23100
F796        F  0.92293065  0.58177043  0.91392568    -0.20400
F797        F  0.88562763  0.62808067  0.89327473    -0.20100
F798        F  0.07078217  0.70907098  0.90126865    -0.20100
F799        F  0.02844092  0.75503451  0.89572508    -0.20500
F800        F  0.04521209  0.72182184  0.84569421    -0.23100
C801        C  0.08527032  0.48378861  0.79618301    -0.06000
C802        C  0.06890057  0.51772951  0.80655494     0.00000
C803        C  0.08604724  0.53995198  0.83417708    -0.08600
C804        C  0.11540770  0.52469156  0.85476214    -0.06000
C805        C  0.12869468  0.48843393  0.84799289    -0.00100
C806        C  0.11490507  0.46831451  0.81676728    -0.08500
C807        C  0.12916897  0.42965634  0.80683999     0.61900
H808        H  0.07228059  0.46772316  0.77425469     0.12500
H809        H  0.12695636  0.54073574  0.87762503     0.12600
C810        C  0.07310287  0.57902453  0.84418665     0.62100
F811        F  0.11031500  0.41451169  0.77681296    -0.23100
F812        F  0.12488895  0.40564039  0.83691727    -0.20400
F813        F  0.16618533  0.43182600  0.79733370    -0.20100
F814        F  0.05706080  0.57832644  0.87920498    -0.20100
F815        F  0.04787056  0.59339172  0.81877843    -0.20500
F816        F  0.10317482  0.60291128  0.84485288    -0.23100
C817        C  0.32864526  0.51245198  0.79201840    -0.06000
C818        C  0.35989164  0.53024775  0.80660144     0.00000
C819        C  0.36291547  0.53528539  0.84557933    -0.08600
C820        C  0.33567172  0.52016290  0.86914797    -0.06000
C821        C  0.30504658  0.50035349  0.85514762    -0.00100
C822        C  0.30078750  0.49755729  0.81543414    -0.08500
C823        C  0.26749787  0.47902477  0.79716849     0.61900
H824        H  0.32684787  0.50936362  0.76199497     0.12500
H825        H  0.33877016  0.52313565  0.89904652     0.12600
C826        C  0.39468562  0.55733071  0.86201174     0.62100
F827        F  0.26713162  0.48428733  0.75883129    -0.23100
F828        F  0.23512337  0.49417094  0.81108129    -0.20400
F829        F  0.26827580  0.44091359  0.80386268    -0.20100
F830        F  0.39434316  0.59295731  0.84681133    -0.20100
F831        F  0.42785626  0.53993893  0.85384911    -0.20500
F832        F  0.39207148  0.56042446  0.90042674    -0.23100
C833        C  0.16572836  0.59214716  0.96176663    -0.06000
C834        C  0.19381773  0.57697449  0.98427107     0.00000
C835        C  0.20629619  0.59779550  0.01578782    -0.08600
C836        C  0.18467111  0.62834207  0.02773978    -0.06000
C837        C  0.15307754  0.63964484  0.00787215    -0.00100
C838        C  0.14667308  0.62448286  0.97206173    -0.08500
C839        C  0.11913506  0.64106100  0.94470173     0.61900
H840        H  0.15763054  0.57777704  0.93641033     0.12500
H841        H  0.19133484  0.64196286  0.05388410     0.12600
C842        C  0.24114465  0.58981123  0.03817292     0.62100
F843        F  0.13405831  0.64111025  0.90916479    -0.23100
F844        F  0.11073183  0.67768318  0.95353423    -0.20400
F845        F  0.08709322  0.61996690  0.94469742    -0.20100
F846        F  0.26412831  0.62065731  0.03602384    -0.20100
F847        F  0.26074643  0.55930744  0.02571358    -0.20500
F848        F  0.23214834  0.58405431  0.07522215    -0.23100
C849        C  0.96351451  0.36614004  0.82511810    -0.06000
C850        C  0.92767470  0.35790096  0.83752890     0.00000
C851        C  0.89715250  0.37667605  0.82111239    -0.08600
C852        C  0.90408292  0.40633241  0.79604377    -0.06000
C853        C  0.94031200  0.41816541  0.78862355    -0.00100
C854        C  0.97032375  0.39563083  0.80025684    -0.08500
C855        C  0.01017454  0.40521684  0.79148911     0.61900
H856        H  0.98674356  0.35142376  0.83734697     0.12500
H857        H  0.88146343  0.42349327  0.78597913     0.12600
C858        C  0.85804376  0.36893285  0.83388212     0.62100
F859        F  0.02965941  0.37292736  0.78348727    -0.23100
F860        F  0.02612372  0.42225282  0.82213588    -0.20400
F861        F  0.01289244  0.42873989  0.76087337    -0.20100
F862        F  0.83232775  0.39025349  0.81452891    -0.20100
F863        F  0.85536234  0.37733499  0.87138121    -0.20500
F864        F  0.84948561  0.33170100  0.82838802    -0.23100
C865        C  0.85124077  0.37929934  0.01822958    -0.06000
C866        C  0.83958148  0.36085591  0.98563597     0.00000
C867        C  0.80364696  0.36891038  0.97136441    -0.08600
C868        C  0.78494116  0.40091050  0.98490613    -0.06000
C869        C  0.79991604  0.42245711  0.01394711    -0.00100
C870        C  0.83123484  0.40900095  0.03340362    -0.08500
C871        C  0.84501204  0.42569934  0.06969407     0.61900
H872        H  0.87708174  0.37125493  0.03149203     0.12500
H873        H  0.75981864  0.41057288  0.97141797     0.12600
C874        C  0.78512669  0.34440758  0.94239985     0.62100
F875        F  0.85014053  0.39734835  0.09555555    -0.23100
F876        F  0.82015784  0.45072494  0.08486832    -0.20400
F877        F  0.87838876  0.44362637  0.06369912    -0.20100
F878        F  0.78342990  0.30804922  0.95562858    -0.20100
F879        F  0.80470137  0.34509167  0.90943968    -0.20500
F880        F  0.74934328  0.35609967  0.93480002    -0.23100
C881        C  0.11639434  0.33068743  0.90282501    -0.06000
C882        C  0.13280963  0.34473265  0.93549057     0.00000
C883        C  0.12016719  0.33172365  0.97062613    -0.08600
C884        C  0.08713556  0.31132370  0.97223667    -0.06000
C885        C  0.06789064  0.30159965  0.93977780    -0.00100
C886        C  0.08414213  0.30850416  0.90457047    -0.08500
C887        C  0.06697680  0.29269416  0.86943547     0.61900
H888        H  0.12715770  0.33954044  0.87599196     0.12500
H889        H  0.07510897  0.30508253  0.99925427     0.12600
C890        C  0.14014832  0.33920368  0.00703877     0.62100
F891        F  0.08828060  0.30027857  0.83823452    -0.23100
F892        F  0.03221080  0.30770603  0.86386214    -0.20400
F893        F  0.06384534  0.25430593  0.87312789    -0.20100
F894        F  0.11883693  0.36231634  0.02915381    -0.20100
F895        F  0.17438029  0.35549218  0.00161934    -0.20500
F896        F  0.14571808  0.30565113  0.02561678    -0.23100
C897        C  0.17903210  0.50131030  0.32723154    -0.06000
C898        C  0.17465736  0.49448074  0.36588478     0.00000
C899        C  0.14658147  0.46888378  0.37760802    -0.08600
C900        C  0.12282578  0.45350077  0.35034594    -0.06000
C901        C  0.12701238  0.46166513  0.31232190    -0.00100
C902        C  0.15576722  0.48536755  0.30034081    -0.08500
C903        C  0.16083295  0.49498722  0.25925447     0.61900
H904        H  0.20061443  0.51989586  0.31780246     0.12500
H905        H  0.10044386  0.43520812  0.35843230     0.12600
C906        C  0.14132281  0.45721288  0.41815114     0.62100
F907        F  0.19065944  0.51853828  0.25335860    -0.23100
F908        F  0.12943979  0.51267021  0.24589750    -0.20400
F909        F  0.16678523  0.46270463  0.23906108    -0.20100
F910        F  0.13203509  0.48789074  0.43949472    -0.20100
F911        F  0.17357809  0.44118672  0.43165158    -0.20500
F912        F  0.11332406  0.43110636  0.42224215    -0.23100
C913        C  0.19154588  0.39991321  0.08347535    -0.06000
C914        C  0.20273787  0.43636213  0.07375166     0.00000
C915        C  0.19811415  0.46534318  0.10003687    -0.08600
C916        C  0.17815415  0.45805059  0.13290289    -0.06000
C917        C  0.16110729  0.42336590  0.13915855    -0.00100
C918        C  0.17040558  0.39288943  0.11591965    -0.08500
C919        C  0.15539177  0.35402226  0.12346013     0.61900
H920        H  0.19617896  0.37788725  0.06377156     0.12500
H921        H  0.17148014  0.48073122  0.15151890     0.12600
C922        C  0.21043830  0.50482482  0.09151265     0.62100
F923        F  0.17023036  0.32790726  0.09933092    -0.23100
F924        F  0.11734054  0.35388054  0.11921693    -0.20400
F925        F  0.16432547  0.34324161  0.15951210    -0.20100
F926        F  0.24802773  0.50501403  0.08445032    -0.20100
F927        F  0.20365285  0.52873327  0.12100855    -0.20500
F928        F  0.19149765  0.51817351  0.06062503    -0.23100
C929        C  0.04495305  0.63473456  0.17682589    -0.06000
C930        C  0.07694486  0.64059487  0.15560761     0.00000
C931        C  0.10766147  0.61656102  0.16029324    -0.08600
C932        C  0.10287480  0.58324831  0.18059117    -0.06000
C933        C  0.06880460  0.57453233  0.19713225    -0.00100
C934        C  0.04074610  0.60225164  0.19873099    -0.08500
C935        C  0.00583813  0.59677349  0.22164577     0.61900
H936        H  0.02217394  0.65419814  0.17365701     0.12500
H937        H  0.12441559  0.56216303  0.18046123     0.12600
C938        C  0.14387125  0.62407560  0.14043564     0.62100
F939        F  0.98274897  0.62763152  0.21959189    -0.23100
F940        F  0.01540776  0.59125918  0.25867307    -0.20400
F941        F  0.98619226  0.56617749  0.20922338    -0.20100
F942        F  0.15518240  0.66035821  0.14722935    -0.20100
F943        F  0.13913602  0.61922357  0.10249482    -0.20500
F944        F  0.17160250  0.60020417  0.15261581    -0.23100
C945        C  0.02583008  0.31443152  0.12009510    -0.06000
C946        C  0.00901160  0.34801678  0.13105423     0.00000
C947        C  0.97429810  0.35802811  0.11550634    -0.08600
C948        C  0.96082847  0.33782044  0.08503305    -0.06000
C949        C  0.97974242  0.30674605  0.07087312    -0.00100
C950        C  0.01132152  0.29305332  0.09032182    -0.08500
C951        C  0.03045193  0.25718310  0.07881898     0.61900
H952        H  0.05171755  0.30648974  0.13321526     0.12500
H953        H  0.93608485  0.34763900  0.07081883     0.12600
C954        C  0.95166948  0.39112788  0.12872454     0.62100
F955        F  0.06083881  0.24938430  0.10117829    -0.23100
F956        F  0.04246634  0.25983646  0.04232045    -0.20400
F957        F  0.00588930  0.22771284  0.08197967    -0.20100
F958        F  0.95661079  0.42089497  0.10444626    -0.20100
F959        F  0.96117226  0.40184916  0.16451072    -0.20500
F960        F  0.91459405  0.38170390  0.12930978    -0.23100
C961        C  0.90461740  0.53764292  0.11989258    -0.06000
C962        C  0.87036943  0.52693549  0.13442788     0.00000
C963        C  0.86873303  0.50563784  0.16769126    -0.08600
C964        C  0.90235022  0.49329452  0.18390862    -0.06000
C965        C  0.93667494  0.50116377  0.16702332    -0.00100
C966        C  0.93787060  0.52457019  0.13468452    -0.08500
C967        C  0.97346841  0.53504660  0.11418770     0.61900
H968        H  0.90491680  0.55482037  0.09485872     0.12500
H969        H  0.90200050  0.47623917  0.20897286     0.12600
C970        C  0.83195534  0.49567387  0.18527922     0.62100
F971        F  0.96772681  0.56285190  0.08772419    -0.23100
F972        F  0.98726022  0.50420320  0.09568744    -0.20400
F973        F  0.99964128  0.54821642  0.13893070    -0.20100
F974        F  0.80984829  0.47727273  0.15972581    -0.20100
F975        F  0.81429726  0.52801361  0.19651816    -0.20500
F976        F  0.83639182  0.47269593  0.21618902    -0.23100
C977        C  0.47840750  0.14983442  0.61381095    -0.06000
C978        C  0.46483669  0.18364034  0.62802789     0.00000
C979        C  0.46453753  0.18948145  0.66712413    -0.08600
C980        C  0.47900530  0.16125232  0.69063450    -0.06000
C981        C  0.49310647  0.12764187  0.67620494    -0.00100
C982        C  0.49265065  0.12166611  0.63713123    -0.08500
C983        C  0.50895988  0.08667815  0.61981963     0.61900
H984        H  0.47810872  0.14582764  0.58383854     0.12500
H985        H  0.47967944  0.16527710  0.72059463     0.12600
C986        C  0.45030450  0.22566824  0.68378793     0.62100
F987        F  0.50955322  0.08867772  0.58119833    -0.23100
F988        F  0.48816062  0.05581024  0.62982012    -0.20400
F989        F  0.54496979  0.08205391  0.63208455    -0.20100
F990        F  0.41280951  0.22915183  0.67679939    -0.20100
F991        F  0.46880656  0.25574778  0.66815947    -0.20500
F992        F  0.45551859  0.22679309  0.72207999    -0.23100
C993        C  0.52563821  0.68403739  0.83962497    -0.06000
C994        C  0.51135355  0.68064934  0.87609280     0.00000
C995        C  0.48666153  0.65062881  0.88448857    -0.08600
C996        C  0.47779140  0.62546332  0.85598311    -0.06000
C997        C  0.49092486  0.62997133  0.81968978    -0.00100
C998        C  0.51591753  0.65901774  0.81123897    -0.08500
C999        C  0.53367208  0.66217378  0.77300398     0.61900
H1000       H  0.54462386  0.70658734  0.83328764     0.12500
H1001       H  0.45959645  0.60222724  0.86160069     0.12600
C1002       C  0.46897462  0.64468613  0.92267001     0.62100
F1003       F  0.55884391  0.69129185  0.77113392    -0.23100
F1004       F  0.50693363  0.66830546  0.74601543    -0.20400
F1005       F  0.55228261  0.62930172  0.76532926    -0.20100
F1006       F  0.44599505  0.67445604  0.93088673    -0.20100
F1007       F  0.49591316  0.64122243  0.94984441    -0.20500
F1008       F  0.44771450  0.61254618  0.92406536    -0.23100
C1009       C  0.50077712  0.90325594  0.82140219    -0.06000
C1010       C  0.53054013  0.91625288  0.79995889     0.00000
C1011       C  0.56375734  0.89505687  0.79915816    -0.08600
C1012       C  0.56818589  0.86553216  0.82516485    -0.06000
C1013       C  0.53996365  0.85634733  0.85050211    -0.00100
C1014       C  0.50453182  0.87274226  0.84571412    -0.08500
C1015       C  0.47102963  0.86047783  0.86803719     0.61900
H1016       H  0.47500309  0.91887358  0.82114641     0.12500
H1017       H  0.59466703  0.85141016  0.82734821     0.12600
C1018       C  0.59515475  0.90241489  0.77214115     0.62100
F1019       F  0.46811685  0.88187927  0.89994381    -0.23100
F1020       F  0.47367975  0.82312408  0.87781980    -0.20400
F1021       F  0.43907689  0.86491308  0.84710182    -0.20100
F1022       F  0.62768623  0.90817653  0.79166041    -0.20100
F1023       F  0.58892894  0.93299587  0.74931123    -0.20500
F1024       F  0.59948168  0.87141593  0.74963390    -0.23100
C1025       C  0.65430522  0.69210573  0.01276008    -0.06000
C1026       C  0.61853015  0.67942759  0.00410953     0.00000
C1027       C  0.60977920  0.64103884  0.00893208    -0.08600
C1028       C  0.63715724  0.61687101  0.02297926    -0.06000
C1029       C  0.67303745  0.62945040  0.03088011    -0.00100
C1030       C  0.68201666  0.66759177  0.02559204    -0.08500
C1031       C  0.72121623  0.68172300  0.03090931     0.61900
H1032       H  0.66065467  0.72139097  0.00837945     0.12500
H1033       H  0.63114894  0.58743013  0.02676341     0.12600
C1034       C  0.57298878  0.62491383  0.99642895     0.62100
F1035       F  0.72498811  0.71861294  0.01967604    -0.23100
F1036       F  0.74511985  0.66025289  0.00984721    -0.20400
F1037       F  0.73111097  0.67933143  0.06815596    -0.20100
F1038       F  0.56760821  0.63321088  0.95906181    -0.20100
F1039       F  0.54452353  0.63980553  0.01734439    -0.20500
F1040       F  0.57177465  0.58640467  0.00050902    -0.23100
C1041       C  0.83256925  0.19127708  0.01650053    -0.06000
C1042       C  0.86154686  0.17948617  0.99355510     0.00000
C1043       C  0.86494877  0.14130521  0.98428516    -0.08600
C1044       C  0.83893583  0.11593076  0.99863860    -0.06000
C1045       C  0.80923667  0.12737308  0.02137977    -0.00100
C1046       C  0.80634485  0.16597604  0.03106508    -0.08500
C1047       C  0.77597347  0.18110147  0.05617895     0.61900
H1048       H  0.83065929  0.22081635  0.02273340     0.12500
H1049       H  0.84155160  0.08667038  0.99159893     0.12600
C1050       C  0.89477730  0.12769161  0.95771728     0.62100
F1051       F  0.77793748  0.21956589  0.05993661    -0.23100
F1052       F  0.77931280  0.16565110  0.09151983    -0.20400
F1053       F  0.74160658  0.17270563  0.04132850    -0.20100
F1054       F  0.92942600  0.13542515  0.97215432    -0.20100
F1055       F  0.89080058  0.14545972  0.92355067    -0.20500
F1056       F  0.89271107  0.08951673  0.95182151    -0.23100
C1057       C  0.65836451  0.00272444  0.90862237    -0.06000
C1058       C  0.68202236  0.03174899  0.91943517     0.00000
C1059       C  0.68780130  0.06215468  0.89461606    -0.08600
C1060       C  0.66351567  0.06631120  0.86373596    -0.06000
C1061       C  0.63642890  0.03916797  0.85588316    -0.00100
C1062       C  0.63722659  0.00494203  0.87599247    -0.08500
C1063       C  0.61584300  0.97039866  0.86447017     0.61900
H1064       H  0.65583217  0.97817593  0.92636514     0.12500
H1065       H  0.66436385  0.09144144  0.84679039     0.12600
C1066       C  0.71937416  0.08936187  0.90038079     0.62100
F1067       F  0.63843189  0.93925487  0.86754102    -0.23100
F1068       F  0.60405125  0.97259163  0.82781467    -0.20400
F1069       F  0.58561641  0.96565559  0.88761311    -0.20100
F1070       F  0.75252204  0.07010899  0.89863527    -0.20100
F1071       F  0.71674691  0.10634853  0.93475015    -0.20500
F1072       F  0.71973871  0.11697851  0.87315727    -0.23100
C1073       C  0.64830534  0.85955295  0.02396007    -0.06000
C1074       C  0.65019071  0.85068508  0.98599043     0.00000
C1075       C  0.67887381  0.86621209  0.96390137    -0.08600
C1076       C  0.70008037  0.89566681  0.97907251    -0.06000
C1077       C  0.69342150  0.90871961  0.01544052    -0.00100
C1078       C  0.67037092  0.88753563  0.03936590    -0.08500
C1079       C  0.66448218  0.89736595  0.07986154     0.61900
H1080       H  0.62732926  0.84635095  0.04119297     0.12500
H1081       H  0.71886380  0.91121969  0.96132276     0.12600
C1082       C  0.68533522  0.85360430  0.92411255     0.62100
F1083       F  0.63387875  0.92044536  0.08274211    -0.23100
F1084       F  0.69526636  0.91511231  0.09445672    -0.20400
F1085       F  0.65837970  0.86531456  0.10076771    -0.20100
F1086       F  0.65443346  0.86113247  0.90248796    -0.20100
F1087       F  0.69234399  0.81558055  0.92384568    -0.20500
F1088       F  0.71540875  0.87152763  0.90819030    -0.23100
C1089       C  0.46329074  0.82474130  0.13148926    -0.06000
C1090       C  0.48483547  0.85558105  0.14211027     0.00000
C1091       C  0.52220445  0.85762697  0.13033615    -0.08600
C1092       C  0.53424780  0.83323452  0.10240215    -0.06000
C1093       C  0.51059478  0.80625655  0.08712686    -0.00100
C1094       C  0.47596318  0.79930003  0.10441417    -0.08500
C1095       C  0.45203761  0.76622987  0.09351243     0.61900
H1096       H  0.43547379  0.82227343  0.14242919     0.12500
H1097       H  0.56119088  0.83753813  0.08979223     0.12600
C1098       C  0.54883636  0.88697415  0.14481110     0.62100
F1099       F  0.41964384  0.76482486  0.11405927    -0.23100
F1100       F  0.47145785  0.73351326  0.10015941    -0.20400
F1101       F  0.44250253  0.76827679  0.05616364    -0.20100
F1102       F  0.54286087  0.89338150  0.18239777    -0.20100
F1103       F  0.54424365  0.91993655  0.12499395    -0.20500
F1104       F  0.58510313  0.87526756  0.14079355    -0.23100
C1105       C  0.46401079  0.84626944  0.32436755    -0.06000
C1106       C  0.48816353  0.87534541  0.31366828     0.00000
C1107       C  0.52470572  0.87589580  0.32846571    -0.08600
C1108       C  0.53560125  0.84681943  0.35285754    -0.06000
C1109       C  0.51109030  0.81830764  0.36358477    -0.00100
C1110       C  0.47467697  0.81785380  0.34919777    -0.08500
C1111       C  0.44721867  0.78729702  0.35955535     0.61900
H1112       H  0.43596287  0.84628448  0.31367891     0.12500
H1113       H  0.56317252  0.84669276  0.36480933     0.12600
C1114       C  0.55221920  0.90656204  0.31885820     0.62100
F1115       F  0.41530225  0.78923942  0.33814737    -0.23100
F1116       F  0.43709757  0.79073066  0.39657694    -0.20400
F1117       F  0.46303452  0.75253842  0.35400788    -0.20100
F1118       F  0.53980933  0.94040171  0.33255023    -0.20100
F1119       F  0.55643670  0.90901869  0.28053982    -0.20500
F1120       F  0.58673360  0.89978294  0.33437317    -0.23100
C1121       C  0.59827964  0.97557806  0.19327911    -0.06000
C1122       C  0.57128967  0.00340585  0.19722995     0.00000
C1123       C  0.57983672  0.04059991  0.18674618    -0.08600
C1124       C  0.61318124  0.04785996  0.16805332    -0.06000
C1125       C  0.63791198  0.01906529  0.15953967    -0.00100
C1126       C  0.63209915  0.98311164  0.17524045    -0.08500
C1127       C  0.66063780  0.95228288  0.17426020     0.61900
H1128       H  0.59223888  0.94738532  0.20266662     0.12500
H1129       H  0.61823598  0.07539924  0.15635656     0.12600
C1130       C  0.55228690  0.07186872  0.19208460     0.62100
F1131       F  0.69279997  0.96306840  0.15637407    -0.23100
F1132       F  0.64601174  0.92154185  0.15648054    -0.20400
F1133       F  0.66958087  0.94209498  0.21048215    -0.20100
F1134       F  0.54022731  0.07197559  0.22870946    -0.20100
F1135       F  0.52258383  0.06651499  0.16832955    -0.20500
F1136       F  0.56772714  0.10646955  0.18440198    -0.23100
C1137       C  0.15601073  0.85354112  0.94472011    -0.06000
C1138       C  0.18035794  0.87130209  0.96957920     0.00000
C1139       C  0.18115959  0.86034835  0.00760655    -0.08600
C1140       C  0.15602289  0.83315243  0.01982378    -0.06000
C1141       C  0.13068484  0.81619514  0.99538416    -0.00100
C1142       C  0.13101234  0.82590562  0.95700919    -0.08500
C1143       C  0.10607877  0.80647684  0.92911522     0.61900
H1144       H  0.15632971  0.86199573  0.91563422     0.12500
H1145       H  0.15571161  0.82511104  0.04902773     0.12600
C1146       C  0.20935006  0.87608195  0.03492493     0.62100
F1147       F  0.11422951  0.81673579  0.89272274    -0.23100
F1148       F  0.06958690  0.81570077  0.93596453    -0.20400
F1149       F  0.11057620  0.76819738  0.93224413    -0.20100
F1150       F  0.20213894  0.91340410  0.04150956    -0.20100
F1151       F  0.24451313  0.87230700  0.02029462    -0.20500
F1152       F  0.20864291  0.85754937  0.06895737    -0.23100
C1153       C  0.36384011  0.83011153  0.91833664    -0.06000
C1154       C  0.35372502  0.85716898  0.94480764     0.00000
C1155       C  0.36971810  0.85521404  0.98100995    -0.08600
C1156       C  0.40060650  0.83236961  0.98681680    -0.06000
C1157       C  0.41416118  0.80909929  0.95876015    -0.00100
C1158       C  0.39356380  0.80518107  0.92517032    -0.08500
C1159       C  0.40152856  0.77556077  0.89612218     0.61900
H1160       H  0.35006154  0.82986706  0.89141946     0.12500
H1161       H  0.41571718  0.83434390  0.01296888     0.12600
C1162       C  0.35640049  0.87866265  0.01340965     0.62100
F1163       F  0.40682149  0.79215738  0.86161665    -0.23100
F1164       F  0.37140148  0.75184790  0.89378039    -0.20400
F1165       F  0.43233362  0.75422961  0.90458818    -0.20100
F1166       F  0.31939131  0.88750573  0.00940906    -0.20100
F1167       F  0.37709065  0.91109675  0.01546011    -0.20500
F1168       F  0.36026815  0.85909263  0.04663582    -0.23100
C1169       C  0.35115568  0.02292500  0.82308734    -0.06000
C1170       C  0.34561636  0.98434336  0.82761284     0.00000
C1171       C  0.36750222  0.95889453  0.80705490    -0.08600
C1172       C  0.39763842  0.97297765  0.78652673    -0.06000
C1173       C  0.40669208  0.01110719  0.78742238    -0.00100
C1174       C  0.38174954  0.03680994  0.80337736    -0.08500
C1175       C  0.38935791  0.07839697  0.80245308     0.61900
H1176       H  0.33367779  0.04198629  0.83844734     0.12500
H1177       H  0.41698733  0.95381853  0.77369860     0.12600
C1178       C  0.36167052  0.91698603  0.81019031     0.62100
F1179       F  0.35864311  0.09887752  0.81304617    -0.23100
F1180       F  0.39903656  0.08930523  0.76666417    -0.20400
F1181       F  0.41798934  0.08647698  0.82664526    -0.20100
F1182       F  0.32566209  0.90822204  0.80047594    -0.20100
F1183       F  0.36834689  0.90536148  0.84648794    -0.20500
F1184       F  0.38507525  0.89740183  0.78678164    -0.23100
C1185       C  0.30162381  0.92953641  0.08340822    -0.06000
C1186       C  0.30137313  0.96469114  0.06584921     0.00000
C1187       C  0.31896871  0.99527682  0.08300961    -0.08600
C1188       C  0.34071272  0.98875947  0.11456720    -0.06000
C1189       C  0.34501954  0.95279190  0.12972907    -0.00100
C1190       C  0.32335287  0.92295828  0.11560434    -0.08500
C1191       C  0.32504518  0.88413514  0.13272569     0.61900
H1192       H  0.28702036  0.90675833  0.07023305     0.12500
H1193       H  0.35708232  0.01140478  0.12562525     0.12600
C1194       C  0.31594299  0.03446395  0.06696692     0.62100
F1195       F  0.30194778  0.85935404  0.11438598    -0.23100
F1196       F  0.31402958  0.88569780  0.16964028    -0.20400
F1197       F  0.36079724  0.87042401  0.13091084    -0.20100
F1198       F  0.27899330  0.04311551  0.06202388    -0.20100
F1199       F  0.33402887  0.03657531  0.03306094    -0.20500
F1200       F  0.33128140  0.06089591  0.09046824    -0.23100
C1201       C  0.45898767  0.36546877  0.17042661    -0.06000
C1202       C  0.49751044  0.36858371  0.17467374     0.00000
C1203       C  0.52105960  0.34643605  0.15214232    -0.08600
C1204       C  0.50509866  0.32065644  0.12747199    -0.06000
C1205       C  0.46657991  0.31714477  0.12323513    -0.00100
C1206       C  0.44294782  0.34036474  0.14473759    -0.08500
C1207       C  0.40121195  0.33988765  0.13978620     0.61900
H1208       H  0.44148285  0.38293603  0.18758621     0.12500
H1209       H  0.52292718  0.30314371  0.11071417     0.12600
C1210       C  0.56281937  0.35154856  0.15215838     0.62100
F1211       F  0.38416232  0.36785496  0.16008613    -0.23100
F1212       F  0.38718547  0.30597717  0.15183316    -0.20400
F1213       F  0.39232153  0.34531610  0.10254899    -0.20100
F1214       F  0.57776173  0.33880106  0.18542592    -0.20100
F1215       F  0.57107568  0.38899642  0.14746816    -0.20500
F1216       F  0.57959099  0.33214704  0.12341031    -0.23100
C1217       C  0.45697598  0.11243192  0.19357640    -0.06000
C1218       C  0.42878843  0.08604650  0.19786145     0.00000
C1219       C  0.39391697  0.09283939  0.18125448    -0.08600
C1220       C  0.39103736  0.12107290  0.15385695    -0.06000
C1221       C  0.42190520  0.14284823  0.14427169    -0.00100
C1222       C  0.45440958  0.14053782  0.16617434    -0.08500
C1223       C  0.48723440  0.16561608  0.15843081     0.61900
H1224       H  0.48273066  0.10804451  0.20837066     0.12500
H1225       H  0.36547268  0.12485532  0.13844615     0.12600
C1226       C  0.36027479  0.07053687  0.19337727     0.62100
F1227       F  0.51405162  0.16216566  0.18587504    -0.23100
F1228       F  0.47597723  0.20257084  0.15723235    -0.20400
F1229       F  0.50267563  0.15609558  0.12450685    -0.20100
F1230       F  0.36604243  0.03270522  0.18868972    -0.20100
F1231       F  0.32895984  0.08069191  0.17341231    -0.20500
F1232       F  0.35376765  0.07709978  0.23080990    -0.23100
C1233       C  0.61850868  0.16117738  0.07944858    -0.06000
C1234       C  0.62950489  0.13936868  0.04884182     0.00000
C1235       C  0.61230337  0.14550388  0.01370013    -0.08600
C1236       C  0.58061461  0.16791170  0.01192529    -0.06000
C1237       C  0.56665024  0.18580289  0.04356445    -0.00100
C1238       C  0.58720400  0.18476149  0.07731577    -0.08500
C1239       C  0.57723803  0.20712014  0.11165818     0.61900
H1240       H  0.63271301  0.15777323  0.10594947     0.12500
H1241       H  0.56513778  0.16961701  0.98595951     0.12600
C1242       C  0.62551302  0.12688754  0.97823374     0.62100
F1243       F  0.57328914  0.18326256  0.14184447    -0.23100
F1244       F  0.54491229  0.22737674  0.10736762    -0.20400
F1245       F  0.60559307  0.23190663  0.11926841    -0.20100
F1246       F  0.60877414  0.09236109  0.97442608    -0.20100
F1247       F  0.66345296  0.12250120  0.97909800    -0.20500
F1248       F  0.61690493  0.14849646  0.94725003    -0.23100
C1249       C  0.28071584  0.10637405  0.00230967    -0.06000
C1250       C  0.29056635  0.09150598  0.96740956     0.00000
C1251       C  0.31614242  0.11126200  0.94509405    -0.08600
C1252       C  0.33730089  0.13955149  0.96155970    -0.06000
C1253       C  0.33240286  0.14986777  0.99896334    -0.00100
C1254       C  0.30161307  0.13543574  0.01880038    -0.08500
C1255       C  0.29256592  0.14869237  0.05786421     0.61900
H1256       H  0.25924042  0.09258865  0.01812361     0.12500
H1257       H  0.35932455  0.15224458  0.94581341     0.12600
C1258       C  0.32358063  0.10132114  0.90474829     0.62100
F1259       F  0.26168095  0.13086167  0.07220435    -0.23100
F1260       F  0.28547844  0.18668992  0.05707219    -0.20400
F1261       F  0.32206210  0.14166918  0.08152809    -0.20100
F1262       F  0.29581795  0.07917135  0.89000945    -0.20100
F1263       F  0.35694725  0.08254996  0.90230226    -0.20500
F1264       F  0.32533268  0.13362991  0.88342281    -0.23100
C1265       C  0.35015166  0.38048592  0.96297182    -0.06000
C1266       C  0.31471032  0.36696764  0.95408111     0.00000
C1267       C  0.30726740  0.32820380  0.95663674    -0.08600
C1268       C  0.33520343  0.30462280  0.97054972    -0.06000
C1269       C  0.36982139  0.31856386  0.98179062    -0.00100
C1270       C  0.37805624  0.35691955  0.97689861    -0.08500
C1271       C  0.41522058  0.37332482  0.98805469     0.61900
H1272       H  0.35540064  0.41017298  0.96002487     0.12500
H1273       H  0.32978849  0.27502891  0.97413763     0.12600
C1274       C  0.26966117  0.31198865  0.94675981     0.62100
F1275       F  0.41628728  0.41170577  0.98288291    -0.23100
F1276       F  0.44290250  0.35777601  0.96653556    -0.20400
F1277       F  0.42219683  0.36596686  0.02537222    -0.20100
F1278       F  0.26250745  0.31750845  0.90919125    -0.20100
F1279       F  0.24244556  0.32917273  0.96765418    -0.20500
F1280       F  0.26795594  0.27393032  0.95382303    -0.23100
C1281       C  0.47264539  0.15757964  0.85645152    -0.06000
C1282       C  0.51076061  0.15327585  0.85102111     0.00000
C1283       C  0.53555853  0.17494363  0.87264885    -0.08600
C1284       C  0.52142251  0.19469759  0.90353381    -0.06000
C1285       C  0.48349786  0.19403550  0.91215205    -0.00100
C1286       C  0.45846981  0.17814090  0.88637263    -0.08500
C1287       C  0.41686475  0.18094031  0.88961160     0.61900
H1288       H  0.45360809  0.14304587  0.83805567     0.12500
H1289       H  0.54024445  0.20822054  0.92286879     0.12600
C1290       C  0.57661100  0.17587942  0.86412256     0.62100
F1291       F  0.40267681  0.19639714  0.85709886    -0.23100
F1292       F  0.40558308  0.20295449  0.91911287    -0.20400
F1293       F  0.40257599  0.14542744  0.89401861    -0.20100
F1294       F  0.58178811  0.18871221  0.82800941    -0.20100
F1295       F  0.59159466  0.14044802  0.86765256    -0.20500
F1296       F  0.59551768  0.19956991  0.88793075    -0.23100
C1297       C  0.97126090  0.66431908  0.67175322    -0.06000
C1298       C  0.99412971  0.63683859  0.68773053     0.00000
C1299       C  0.03199163  0.63528121  0.67678700    -0.08600
C1300       C  0.04458889  0.65957635  0.64821133    -0.06000
C1301       C  0.02076476  0.68509913  0.63040983    -0.00100
C1302       C  0.98377171  0.68861484  0.64355275    -0.08500
C1303       C  0.95729968  0.71817666  0.62845542     0.61900
H1304       H  0.94262106  0.66569517  0.68046788     0.12500
H1305       H  0.07292585  0.65785853  0.63859680     0.12600
C1306       C  0.05928594  0.60866583  0.69530024     0.62100
F1307       F  0.92590999  0.72144213  0.65031614    -0.23100
F1308       F  0.94594175  0.70886149  0.59281575    -0.20400
F1309       F  0.97465209  0.75263426  0.62788905    -0.20100
F1310       F  0.05201545  0.57234041  0.68454522    -0.20100
F1311       F  0.05660234  0.61142005  0.73372693    -0.20500
F1312       F  0.09543899  0.61680322  0.68546694    -0.23100
C1313       C  0.11796117  0.64914776  0.49217503    -0.06000
C1314       C  0.12908999  0.68663899  0.49482778     0.00000
C1315       C  0.16546052  0.69657467  0.48284546    -0.08600
C1316       C  0.18908556  0.66826124  0.46900682    -0.06000
C1317       C  0.17816814  0.63062369  0.46806585    -0.00100
C1318       C  0.14185503  0.62092032  0.47956845    -0.08500
C1319       C  0.12800542  0.58083244  0.47834359     0.61900
H1320       H  0.09049293  0.64167674  0.50161638     0.12500
H1321       H  0.21691963  0.67505765  0.46012333     0.12600
C1322       C  0.17962561  0.73657675  0.48444630     0.62100
F1323       F  0.09045294  0.57845745  0.48555675    -0.23100
F1324       F  0.14623000  0.55949877  0.50492954    -0.20400
F1325       F  0.13418268  0.56608883  0.44329423    -0.20100
F1326       F  0.18403169  0.74740098  0.52120735    -0.20100
F1327       F  0.15490323  0.76033483  0.46672096    -0.20500
F1328       F  0.21360003  0.74040158  0.46703050    -0.23100
C1329       C  0.63664282  0.88128486  0.51486483    -0.06000
C1330       C  0.67209664  0.86746988  0.52343268     0.00000
C1331       C  0.68007622  0.82910050  0.51789290    -0.08600
C1332       C  0.65219850  0.80621658  0.50303103    -0.06000
C1333       C  0.61697229  0.82027208  0.49390971    -0.00100
C1334       C  0.60858806  0.85827632  0.50063104    -0.08500
C1335       C  0.57070848  0.87481354  0.49211103     0.61900
H1336       H  0.63109187  0.91064843  0.51920634     0.12500
H1337       H  0.65781288  0.77689412  0.49801533     0.12600
C1338       C  0.71806405  0.81254597  0.52594441     0.62100
F1339       F  0.57015965  0.91322979  0.49665985    -0.23100
F1340       F  0.54479247  0.85956266  0.51610339    -0.20400
F1341       F  0.56073477  0.86728360  0.45558556    -0.20100
F1342       F  0.72512443  0.81347424  0.56389046    -0.20100
F1343       F  0.74494528  0.83270223  0.50717008    -0.20500
F1344       F  0.72058221  0.77567564  0.51460396    -0.23100
C1345       C  0.90233821  0.80441155  0.58814681    -0.06000
C1346       C  0.91216012  0.79164454  0.55237471     0.00000
C1347       C  0.88646136  0.79574363  0.52274400    -0.08600
C1348       C  0.85472284  0.81792598  0.52848975    -0.06000
C1349       C  0.84800021  0.83546649  0.56286221    -0.00100
C1350       C  0.87046951  0.82630252  0.59397531    -0.08500
C1351       C  0.86269771  0.84232319  0.63233422     0.61900
H1352       H  0.92190957  0.80051632  0.61076384     0.12500
H1353       H  0.83681469  0.82478037  0.50512556     0.12600
C1354       C  0.89412528  0.77976204  0.48442072     0.62100
F1355       F  0.88722690  0.82885084  0.65893142    -0.23100
F1356       F  0.82735588  0.83246004  0.64332327    -0.20400
F1357       F  0.86558912  0.88088216  0.63134491    -0.20100
F1358       F  0.90040577  0.74172700  0.48747425    -0.20100
F1359       F  0.92485931  0.79685889  0.46904996    -0.20500
F1360       F  0.86455982  0.78507499  0.46033929    -0.23100
C1361       C  0.68532123  0.00414675  0.65826635    -0.06000
C1362       C  0.67511136  0.00038162  0.62054811     0.00000
C1363       C  0.63809351  0.00813188  0.60969297    -0.08600
C1364       C  0.61251301  0.01870527  0.63729547    -0.06000
C1365       C  0.62274084  0.02220867  0.67494505    -0.00100
C1366       C  0.65973957  0.01484841  0.68580512    -0.08500
C1367       C  0.67164400  0.01605528  0.72650505     0.61900
H1368       H  0.71355053  0.99756148  0.66616422     0.12500
H1369       H  0.58392561  0.02370553  0.62976350     0.12600
C1370       C  0.62495751  0.00309956  0.56974461     0.62100
F1371       F  0.70798864  0.00466070  0.73121521    -0.23100
F1372       F  0.64939621  0.99255422  0.74747511    -0.20400
F1373       F  0.66869234  0.05208383  0.73991419    -0.20100
F1374       F  0.63043684  0.96646451  0.55915002    -0.20100
F1375       F  0.64440501  0.02659148  0.54615661    -0.20500
F1376       F  0.58768244  0.01121873  0.56562646    -0.23100
C1377       C  0.18137268  0.01215981  0.82541935    -0.06000
C1378       C  0.17080916  0.00041599  0.86127776     0.00000
C1379       C  0.13311705  0.00286128  0.87203269    -0.08600
C1380       C  0.10707598  0.01586078  0.84580292    -0.06000
C1381       C  0.11751835  0.02758863  0.80990353    -0.00100
C1382       C  0.15543336  0.02654069  0.79965055    -0.08500
C1383       C  0.16842214  0.03966830  0.76151880     0.61900
H1384       H  0.21035094  0.01035615  0.81793490     0.12500
H1385       H  0.07807179  0.01723125  0.85325720     0.12600
C1386       C  0.12012096  0.99099857  0.91066999     0.62100
F1387       F  0.20544685  0.03171348  0.75563540    -0.23100
F1388       F  0.16377147  0.07793170  0.75839243    -0.20400
F1389       F  0.14815732  0.02209810  0.73399943    -0.20100
F1390       F  0.13418492  0.01518440  0.93714777    -0.20100
F1391       F  0.13196997  0.95499822  0.91844999    -0.20500
F1392       F  0.08192517  0.99157682  0.91357006    -0.23100
C1393       C  0.07366317  0.90586328  0.68602470    -0.06000
C1394       C  0.03741391  0.91745872  0.69381067     0.00000
C1395       C  0.00742381  0.89339274  0.68555362    -0.08600
C1396       C  0.01410545  0.86124348  0.66455836    -0.06000
C1397       C  0.04971666  0.85244428  0.65244910    -0.00100
C1398       C  0.08042694  0.87283160  0.66596819    -0.08500
C1399       C  0.11976189  0.86089302  0.65735788     0.61900
H1400       H  0.09635890  0.92429957  0.69316727     0.12500
H1401       H  0.99118443  0.84441243  0.65463729     0.12600
C1402       C  0.96841758  0.90237920  0.69751526     0.62100
F1403       F  0.14546189  0.88371727  0.67466346    -0.23100
F1404       F  0.12606045  0.86221896  0.61935449    -0.20400
F1405       F  0.12527105  0.82471418  0.67000581    -0.20100
F1406       F  0.95762396  0.93649781  0.68287219    -0.20100
F1407       F  0.96758471  0.90328313  0.73604540    -0.20500
F1408       F  0.94326232  0.87576291  0.68567235    -0.23100
C1409       C  0.96508815  0.15912682  0.79754534    -0.06000
C1410       C  0.98398622  0.12743330  0.81075957     0.00000
C1411       C  0.98892888  0.12203091  0.84956513    -0.08600
C1412       C  0.97466725  0.14885564  0.87402956    -0.06000
C1413       C  0.95651968  0.18127972  0.86113302    -0.00100
C1414       C  0.95100397  0.18634813  0.82208154    -0.08500
C1415       C  0.93166366  0.22059012  0.80603247     0.61900
H1416       H  0.96192787  0.16254803  0.76762892     0.12500
H1417       H  0.97823303  0.14490343  0.90382367     0.12600
C1418       C  0.01104195  0.08921504  0.86504040     0.62100
F1419       F  0.93254296  0.22113423  0.76736708    -0.23100
F1420       F  0.94886918  0.25271050  0.81858816    -0.20400
F1421       F  0.89494804  0.22074459  0.81682077    -0.20100
F1422       F  0.04590289  0.08886200  0.84916647    -0.20100
F1423       F  0.99315029  0.05603965  0.85709894    -0.20500
F1424       F  0.01543219  0.09127587  0.90339131    -0.23100
C1425       C  0.85430605  0.97037332  0.68048661    -0.06000
C1426       C  0.84598054  0.98690951  0.64584574     0.00000
C1427       C  0.86204524  0.02188595  0.63673360    -0.08600
C1428       C  0.89243012  0.03407064  0.65743512    -0.06000
C1429       C  0.90495670  0.01432348  0.68888508    -0.00100
C1430       C  0.88267589  0.98498574  0.70342709    -0.08500
C1431       C  0.88795764  0.96998418  0.74271580     0.61900
H1432       H  0.83990015  0.94504956  0.68851898     0.12500
H1433       H  0.90772328  0.05836857  0.64780079     0.12600
C1434       C  0.84897333  0.04664023  0.60485783     0.62100
F1435       F  0.86293748  0.94182535  0.75093147    -0.23100
F1436       F  0.88266431  0.99869706  0.76783500    -0.20400
F1437       F  0.92303261  0.95585539  0.74752118    -0.20100
F1438       F  0.81464806  0.03607596  0.59154062    -0.20100
F1439       F  0.87449278  0.04564197  0.57615188    -0.20500
F1440       F  0.84578840  0.08305085  0.61728729    -0.23100
C1441       C  0.96374636  0.35736033  0.36794207    -0.06000
C1442       C  0.95678488  0.32007974  0.35823569     0.00000
C1443       C  0.96386942  0.30797816  0.32121183    -0.08600
C1444       C  0.97913678  0.33369039  0.29565895    -0.06000
C1445       C  0.98710191  0.37066779  0.30580367    -0.00100
C1446       C  0.97879736  0.38304188  0.34240584    -0.08500
C1447       C  0.98744679  0.42253052  0.35524957     0.61900
H1448       H  0.95789066  0.36604757  0.39625513     0.12500
H1449       H  0.98578659  0.32492537  0.26754821     0.12600
C1450       C  0.95715612  0.26788487  0.30901790     0.62100
F1451       F  0.97978933  0.42746186  0.39277881    -0.23100
F1452       F  0.96629849  0.44791702  0.33526626    -0.20400
F1453       F  0.02456958  0.43013184  0.34985341    -0.20100
F1454       F  0.91981415  0.25973630  0.31090146    -0.20100
F1455       F  0.97663331  0.24356536  0.33192166    -0.20500
F1456       F  0.96845813  0.26188248  0.27260709    -0.23100
C1457       C  0.85921021  0.09663992  0.45584715    -0.06000
C1458       C  0.84598714  0.13147671  0.46724840     0.00000
C1459       C  0.81360767  0.13334197  0.48930912    -0.08600
C1460       C  0.79711996  0.09932755  0.50128511    -0.06000
C1461       C  0.81369187  0.06449816  0.49348402    -0.00100
C1462       C  0.84574022  0.06331575  0.47033503    -0.08500
C1463       C  0.86784256  0.02784555  0.46195435     0.61900
H1464       H  0.88295647  0.09590296  0.43744906     0.12500
H1465       H  0.77248439  0.09975834  0.51843726     0.12600
C1466       C  0.79746606  0.17060057  0.50077988     0.62100
F1467       F  0.89499722  0.03365226  0.43530921    -0.23100
F1468       F  0.84496568  0.00027543  0.44851082    -0.20400
F1469       F  0.88549042  0.01545382  0.49403232    -0.20100
F1470       F  0.78753637  0.19080504  0.46928817    -0.20100
F1471       F  0.82342342  0.19058144  0.52089898    -0.20500
F1472       F  0.76629208  0.16619439  0.52276076    -0.23100
C1473       C  0.85046389  0.32443423  0.53017338    -0.06000
C1474       C  0.85623013  0.32266554  0.49141676     0.00000
C1475       C  0.83632425  0.34747428  0.46765255    -0.08600
C1476       C  0.81046839  0.37214787  0.48341450    -0.06000
C1477       C  0.80392442  0.37361940  0.52204148    -0.00100
C1478       C  0.82459979  0.34955429  0.54604618    -0.08500
C1479       C  0.82033242  0.35100455  0.58816946     0.61900
H1480       H  0.86615246  0.30559278  0.54791300     0.12500
H1481       H  0.79488401  0.39075444  0.46532469     0.12600
C1482       C  0.84296789  0.34892049  0.42572377     0.62100
F1483       F  0.84540031  0.32781905  0.60623338    -0.23100
F1484       F  0.78511817  0.33962241  0.59802432    -0.20400
F1485       F  0.82621750  0.38708669  0.60058090    -0.20100
F1486       F  0.82869326  0.31720923  0.40916481    -0.20100
F1487       F  0.88049830  0.35123455  0.41853119    -0.20500
F1488       F  0.82617269  0.37968232  0.40925065    -0.23100
C1489       C  0.96219086  0.14681947  0.61726599    -0.06000
C1490       C  0.99838562  0.15098796  0.63103838     0.00000
C1491       C  0.02006075  0.18165494  0.61830028    -0.08600
C1492       C  0.00674312  0.20344012  0.58813039    -0.06000
C1493       C  0.97272240  0.19549530  0.57106960    -0.00100
C1494       C  0.94862978  0.16936706  0.58807840    -0.08500
C1495       C  0.90917261  0.16428400  0.57448705     0.61900
H1496       H  0.94510998  0.12440348  0.62817729     0.12500
H1497       H  0.02414348  0.22467944  0.57563540     0.12600
C1498       C  0.05794327  0.18987076  0.63459618     0.62100
F1499       F  0.88750592  0.14762736  0.60167283    -0.23100
F1500       F  0.90857484  0.14199554  0.54310001    -0.20400
F1501       F  0.89368529  0.19869936  0.56597990    -0.20100
F1502       F  0.08081554  0.15927142  0.63006671    -0.20100
F1503       F  0.05457863  0.19781482  0.67219311    -0.20500
F1504       F  0.07453492  0.22028766  0.61744011    -0.23100
C1505       C  0.87156504  0.96031107  0.13831311    -0.06000
C1506       C  0.86662265  0.96741607  0.17639316     0.00000
C1507       C  0.83556421  0.98787724  0.18842699    -0.08600
C1508       C  0.80942610  0.99966479  0.16177225    -0.06000
C1509       C  0.81429070  0.99345959  0.12321647    -0.00100
C1510       C  0.84620480  0.97332715  0.11116663    -0.08500
C1511       C  0.85466517  0.96658575  0.07014823     0.61900
H1512       H  0.89609448  0.94506066  0.13001100     0.12500
H1513       H  0.78530879  0.01496734  0.17103690     0.12600
C1514       C  0.83134201  0.99899903  0.22906835     0.62100
F1515       F  0.88872084  0.94954077  0.06522459    -0.23100
F1516       F  0.85539583  0.00028169  0.05100968    -0.20400
F1517       F  0.82805723  0.94347169  0.05480633    -0.20100
F1518       F  0.86109332  0.02094658  0.23953985    -0.20100
F1519       F  0.83028949  0.96743864  0.25147153    -0.20500
F1520       F  0.79925937  0.01923965  0.23509305    -0.23100
C1521       C  0.82095937  0.95954327  0.35857972    -0.06000
C1522       C  0.84314364  0.92759786  0.35455832     0.00000
C1523       C  0.83720576  0.89656568  0.37851731    -0.08600
C1524       C  0.81264623  0.90016035  0.40855151    -0.06000
C1525       C  0.79407610  0.93375924  0.41541661    -0.00100
C1526       C  0.79552077  0.96276359  0.38829792    -0.08500
C1527       C  0.77118233  0.99720652  0.39130304     0.61900
H1528       H  0.82513867  0.98269557  0.33943592     0.12500
H1529       H  0.81068027  0.87804004  0.42925814     0.12600
C1530       C  0.85870882  0.86072050  0.37393287     0.62100
F1531       F  0.77697188  0.02179811  0.36191828    -0.23100
F1532       F  0.77811911  0.01608634  0.42409656    -0.20400
F1533       F  0.73446745  0.98637269  0.39068765    -0.20100
F1534       F  0.89609582  0.86781291  0.37814509    -0.20100
F1535       F  0.85160860  0.84662541  0.33879083    -0.20500
F1536       F  0.84873162  0.83383697  0.39995526    -0.23100
C1537       C  0.01926201  0.85535782  0.37445695    -0.06000
C1538       C  0.98686279  0.84501467  0.35529323     0.00000
C1539       C  0.97082410  0.80952265  0.36352190    -0.08600
C1540       C  0.98218279  0.79074450  0.39640132    -0.06000
C1541       C  0.01146286  0.80429969  0.41809850    -0.00100
C1542       C  0.03291895  0.83433457  0.40448256    -0.08500
C1543       C  0.06994421  0.84532710  0.42107995     0.61900
H1544       H  0.03373154  0.88071633  0.36644852     0.12500
H1545       H  0.96738882  0.76627941  0.40620478     0.12600
C1546       C  0.94348301  0.79054932  0.33769505     0.62100
F1547       F  0.09555714  0.84923665  0.39267590    -0.23100
F1548       F  0.08344387  0.81858529  0.44559758    -0.20400
F1549       F  0.06659451  0.87905842  0.43945347    -0.20100
F1550       F  0.96037647  0.78422138  0.30382031    -0.20100
F1551       F  0.91263133  0.81228747  0.33209608    -0.20500
F1552       F  0.93186291  0.75639687  0.35175356    -0.23100
C1553       C  0.90374359  0.08896473  0.30714148    -0.06000
C1554       C  0.93933338  0.07769840  0.29629141     0.00000
C1555       C  0.96943863  0.10236531  0.30192198    -0.08600
C1556       C  0.96414713  0.13435169  0.32384024    -0.06000
C1557       C  0.92945955  0.14312970  0.33884962    -0.00100
C1558       C  0.89804885  0.12230772  0.32728518    -0.08500
C1559       C  0.85908525  0.13406205  0.33762039     0.61900
H1560       H  0.88078635  0.07025124  0.30182930     0.12500
H1561       H  0.98765144  0.15148025  0.33156535     0.12600
C1562       C  0.00740849  0.09380839  0.28658361     0.62100
F1563       F  0.83270709  0.11116385  0.32146955    -0.23100
F1564       F  0.85276363  0.17017407  0.32512313    -0.20400
F1565       F  0.85459062  0.13258824  0.37587909    -0.20100
F1566       F  0.00506898  0.09148362  0.24811743    -0.20100
F1567       F  0.02002446  0.06037454  0.30123397    -0.20500
F1568       F  0.03295768  0.12125006  0.29534461    -0.23100
C1569       C  0.03113704  0.80850195  0.16337758    -0.06000
C1570       C  0.03540033  0.82030054  0.12633581     0.00000
C1571       C  0.02807180  0.85803070  0.11657876    -0.08600
C1572       C  0.01317438  0.88190337  0.14380713    -0.06000
C1573       C  0.00556986  0.86916149  0.18012786    -0.00100
C1574       C  0.01635526  0.83233236  0.19067028    -0.08500
C1575       C  0.01186160  0.81776064  0.23025012     0.61900
H1576       H  0.03776073  0.77975300  0.17035702     0.12500
H1577       H  0.00581195  0.91034395  0.13639152     0.12600
C1578       C  0.03649497  0.87315059  0.07780543     0.62100
F1579       F  0.03060053  0.78438882  0.23579260    -0.23100
F1580       F  0.97483272  0.81149051  0.23726132    -0.20400
F1581       F  0.02569167  0.84344739  0.25545181    -0.20100
F1582       F  0.01312146  0.85713694  0.05182668    -0.20100
F1583       F  0.07279794  0.86508968  0.06861402    -0.20500
F1584       F  0.03191743  0.91154666  0.07583168    -0.23100
C1585       C  0.30627923  0.17213757  0.46151237    -0.06000
C1586       C  0.31362506  0.13366389  0.46397806     0.00000
C1587       C  0.34768119  0.12137485  0.48010638    -0.08600
C1588       C  0.37227795  0.14816933  0.49444644    -0.06000
C1589       C  0.36360668  0.18627245  0.49433218    -0.00100
C1590       C  0.33044914  0.19878305  0.47696644    -0.08500
C1591       C  0.32006579  0.23994903  0.47534749     0.61900
H1592       H  0.28033976  0.18114194  0.44918208     0.12500
H1593       H  0.39778931  0.13934330  0.50780068     0.12600
C1594       C  0.35825752  0.08028605  0.48298155     0.62100
F1595       F  0.29125202  0.24651678  0.45061905    -0.23100
F1596       F  0.35000228  0.26103758  0.46373511    -0.20400
F1597       F  0.30901181  0.25173167  0.51030340    -0.20100
F1598       F  0.35264240  0.06286957  0.44905417    -0.20100
F1599       F  0.33720966  0.06294702  0.51021632    -0.20500
F1600       F  0.39513868  0.07563765  0.49257796    -0.23100
C1601       C  0.13013279  0.18985768  0.45578828    -0.06000
C1602       C  0.13584067  0.17201283  0.42141758     0.00000
C1603       C  0.11129839  0.17963745  0.39149679    -0.08600
C1604       C  0.07854823  0.19983465  0.39873545    -0.06000
C1605       C  0.07019080  0.21282764  0.43474691    -0.00100
C1606       C  0.09759103  0.21038484  0.46295566    -0.08500
C1607       C  0.09052702  0.22538236  0.50174664     0.61900
H1608       H  0.14929087  0.18395615  0.47838247     0.12500
H1609       H  0.05750875  0.20227047  0.37723051     0.12600
C1610       C  0.11811124  0.16353988  0.35305058     0.62100
F1611       F  0.12214686  0.22427373  0.52365657    -0.23100
F1612       F  0.06349158  0.20413353  0.51890626    -0.20400
F1613       F  0.07886646  0.26215646  0.49946092    -0.20100
F1614       F  0.11471836  0.12504384  0.35418676    -0.20100
F1615       F  0.15341767  0.17282769  0.34141879    -0.20500
F1616       F  0.09324093  0.17744639  0.32697460    -0.23100
C1617       C  0.15015289  0.09522063  0.61979227    -0.06000
C1618       C  0.13663483  0.06034851  0.63193436     0.00000
C1619       C  0.15165668  0.02718448  0.61647050    -0.08600
C1620       C  0.17580828  0.03032694  0.58593784    -0.06000
C1621       C  0.18445347  0.06514153  0.57012514    -0.00100
C1622       C  0.17361075  0.09823529  0.58854075    -0.08500
C1623       C  0.18652705  0.13630737  0.57492287     0.61900
H1624       H  0.13981801  0.12026965  0.63295467     0.12500
H1625       H  0.18498944  0.00531827  0.57172188     0.12600
C1626       C  0.14219379  0.98859246  0.63159295     0.62100
F1627       F  0.17628700  0.16448095  0.59918328    -0.23100
F1628       F  0.17147158  0.14436007  0.54030706    -0.20400
F1629       F  0.22471124  0.13637207  0.57219395    -0.20100
F1630       F  0.10556906  0.98013990  0.62471037    -0.20100
F1631       F  0.14860857  0.98749789  0.66957317    -0.20500
F1632       F  0.16363161  0.96101356  0.61535023    -0.23100
C1633       C  0.12553351  0.02968999  0.30887280    -0.06000
C1634       C  0.13380475  0.01589381  0.34472523     0.00000
C1635       C  0.11760315  0.98162719  0.35620360    -0.08600
C1636       C  0.08619052  0.96894654  0.33743958    -0.06000
C1637       C  0.07384976  0.98615611  0.30447514    -0.00100
C1638       C  0.09695176  0.01340269  0.28723246    -0.08500
C1639       C  0.09236343  0.02433398  0.24653769     0.61900
H1640       H  0.14020975  0.05405390  0.29866992     0.12500
H1641       H  0.07073274  0.94567074  0.34908212     0.12600
C1642       C  0.13194562  0.95838224  0.38867226     0.62100
F1643       F  0.12009639  0.04837970  0.23492139    -0.23100
F1644       F  0.05884616  0.04173772  0.24057145    -0.20400
F1645       F  0.09413483  0.99253656  0.22477834    -0.20100
F1646       F  0.10970190  0.96371392  0.41955965    -0.20100
F1647       F  0.16813473  0.96738920  0.39741652    -0.20500
F1648       F  0.13137494  0.92090600  0.37931286    -0.23100
C1649       C  0.33880852  0.99437497  0.37667188    -0.06000
C1650       C  0.30281374  0.00102141  0.36352052     0.00000
C1651       C  0.29345590  0.99095840  0.32638527    -0.08600
C1652       C  0.32168987  0.97838432  0.30247847    -0.06000
C1653       C  0.35845166  0.97494597  0.31480648    -0.00100
C1654       C  0.36685384  0.98103762  0.35307144    -0.08500
C1655       C  0.40488866  0.97262560  0.36937169     0.61900
H1656       H  0.34524290  0.00112369  0.40540362     0.12500
H1657       H  0.31541830  0.97238636  0.27352253     0.12600
C1658       C  0.25383120  0.99268680  0.31218056     0.62100
F1659       F  0.40469097  0.97369735  0.40801303    -0.23100
F1660       F  0.43035404  0.99865350  0.35695587    -0.20400
F1661       F  0.41604644  0.93719979  0.35883118    -0.20100
F1662       F  0.24352428  0.02940582  0.30593260    -0.20100
F1663       F  0.23027505  0.97669370  0.33814247    -0.20500
F1664       F  0.24968752  0.97339576  0.27900726    -0.23100
C1665       C  0.16139328  0.87356313  0.50169540    -0.06000
C1666       C  0.12770827  0.87865317  0.52059650     0.00000
C1667       C  0.11507704  0.91555756  0.52786874    -0.08600
C1668       C  0.13644805  0.94565539  0.51574070    -0.06000
C1669       C  0.16864587  0.94121918  0.49433202    -0.00100
C1670       C  0.18215645  0.90441895  0.48800483    -0.08500
C1671       C  0.21763097  0.89752158  0.46664024     0.61900
H1672       H  0.17046896  0.84522633  0.49642511     0.12500
H1673       H  0.12709620  0.97363348  0.52211256     0.12600
C1674       C  0.07884069  0.92402367  0.54800612     0.62100
F1675       F  0.22457773  0.85972216  0.46227146    -0.23100
F1676       F  0.24711262  0.91291027  0.48584440    -0.20400
F1677       F  0.21527601  0.91353534  0.43149884    -0.20100
F1678       F  0.07789041  0.90522801  0.58163844    -0.20100
F1679       F  0.04893544  0.91360980  0.52630085    -0.20500
F1680       F  0.07468653  0.96171974  0.55558624    -0.23100
loop_ 
_geom_bond_atom_site_label_1 
_geom_bond_atom_site_label_2 
_geom_bond_distance 
_geom_bond_site_symmetry_2 
_ccdc_geom_bond_type 
Fe1          O17   2.038       .  S
Fe1           O7   2.045       .  S
Fe1          O14   2.036       .  S
Fe1           O6   2.042       .  S
Fe1          O12   1.946       .  S
Fe2           O5   2.052       .  S
Fe2           O9   2.108       .  S
Fe2          O13   2.097       .  S
Fe2          O18   2.096       .  S
Fe2          O12   1.979       .  S
Fe3          O21   2.074       .  S
Fe3           O8   2.054       .  S
Fe3          O15   2.083   1_545  S
Fe3           O4   2.095       .  S
Fe3          O12   1.981       .  S
O4           C11   1.275       .  A
O5           C19   1.263       .  A
O6           C11   1.265       .  A
O7           C10   1.266   1_545  A
O8           C20   1.270       .  A
O9           C22   1.280       .  A
C10          O15   1.267       .  A
C10        C1669   1.498       .  S
C11        C1621   1.473       .  S
O13          C16   1.267       .  A
O14          C16   1.258       .  A
C16        C1602   1.483       .  S
O17          C22   1.271       .  A
O18          C20   1.281       .  A
C19          O21   1.269       .  A
C19        C1650   1.482       .  S
C20        C1586   1.487       .  S
C22        C1634   1.486       .  S
Fe23         O39   2.058       .  S
Fe23         O29   2.060   1_655  S
Fe23         O36   2.062       .  S
Fe23         O28   2.057   1_565  S
Fe23         O34   1.961       .  S
Fe24         O27   2.055       .  S
Fe24         O31   2.090       .  S
Fe24         O35   2.084       .  S
Fe24         O40   2.079       .  S
Fe24         O34   1.987       .  S
Fe25         O43   2.074       .  S
Fe25         O30   2.062       .  S
Fe25         O37   2.073   1_655  S
Fe25         O26   2.096   1_565  S
Fe25         O34   1.993       .  S
O26          C33   1.273       .  A
O27          C41   1.264       .  A
O28          C33   1.268       .  A
O29          C32   1.270       .  A
O30          C42   1.270       .  A
O31          C44   1.272       .  A
C32          O37   1.266       .  A
C32        C1637   1.487       .  S
C33        C1554   1.483       .  S
O35          C38   1.269       .  A
O36          C38   1.265       .  A
C38        C1522   1.484       .  S
O39          C44   1.272       .  A
O40          C42   1.274       .  A
C41          O43   1.269       .  A
C41        C1573   1.486   1_655  S
C42        C1506   1.473       .  S
C44        C1538   1.493       .  S
Fe45         O61   2.049       .  S
Fe45         O51   2.040   1_655  S
Fe45         O58   2.026       .  S
Fe45         O50   2.044       .  S
Fe45         O56   1.951       .  S
Fe46         O49   2.066       .  S
Fe46         O53   2.081       .  S
Fe46         O57   2.087       .  S
Fe46         O62   2.058       .  S
Fe46         O56   1.990       .  S
Fe47         O65   2.072       .  S
Fe47         O52   2.093       .  S
Fe47         O59   2.105   1_655  S
Fe47         O48   2.094       .  S
Fe47         O56   1.984       .  S
O48          C55   1.274       .  A
O49          C63   1.272       .  A
O50          C55   1.265       .  A
O51          C54   1.261       .  A
O52          C64   1.272       .  A
O53          C66   1.267       .  A
C54          O59   1.273       .  A
C54        C1605   1.485       .  S
C55        C1493   1.479       .  S
O57          C60   1.271       .  A
O58          C60   1.267       .  A
C60        C1458   1.481       .  S
O61          C66   1.265       .  A
O62          C64   1.265       .  A
C63          O65   1.276       .  A
C63        C1442   1.481       .  S
C64        C1474   1.492       .  S
C66        C1557   1.485       .  S
Fe67         O83   2.061       .  S
Fe67         O73   2.054   1_545  S
Fe67         O80   2.063       .  S
Fe67         O72   2.051   1_455  S
Fe67         O78   1.961       .  S
Fe68         O71   2.072       .  S
Fe68         O75   2.077       .  S
Fe68         O79   2.079       .  S
Fe68         O84   2.057       .  S
Fe68         O78   1.985       .  S
Fe69         O87   2.065       .  S
Fe69         O74   2.061   1_455  S
Fe69         O81   2.083   1_545  S
Fe69         O70   2.079   1_455  S
Fe69         O78   1.992       .  S
O70          C77   1.268       .  A
O71          C85   1.271       .  A
O72          C77   1.269       .  A
O73          C76   1.267       .  A
O74          C86   1.266   1_655  A
O75          C88   1.268       .  A
C76          O81   1.269       .  A
C76        C1394   1.473       .  S
C77        C1429   1.483       .  S
O79          C82   1.270       .  A
O80          C82   1.270       .  A
C82        C1490   1.489   1_455  S
O83          C88   1.266       .  A
O84          C86   1.266       .  A
C85          O87   1.272       .  A
C85        C1381   1.484       .  S
C86        C1410   1.473   1_455  S
C88        C1618   1.484       .  S
Fe89        O105   2.035       .  S
Fe89         O95   2.043       .  S
Fe89        O102   2.056       .  S
Fe89         O94   2.022   1_565  S
Fe89        O100   1.949       .  S
Fe90         O93   2.062       .  S
Fe90         O97   2.091       .  S
Fe90        O101   2.081       .  S
Fe90        O106   2.053       .  S
Fe90        O100   1.983       .  S
Fe91        O109   2.067       .  S
Fe91         O96   2.080       .  S
Fe91        O103   2.090       .  S
Fe91         O92   2.093   1_565  S
Fe91        O100   1.989       .  S
O92          C99   1.272       .  A
O93         C107   1.272       .  A
O94          C99   1.258       .  A
O95          C98   1.268       .  A
O96         C108   1.270       .  A
O97         C110   1.267       .  A
C98         O103   1.272       .  A
C98        C1525   1.479       .  S
C99        C1461   1.483       .  S
O101        C104   1.273       .  A
O102        C104   1.271       .  A
C104       C1426   1.478       .  S
O105        C110   1.258       .  A
O106        C108   1.266       .  A
C107        O109   1.274       .  A
C107       C1330   1.478       .  S
C108       C1362   1.485   1_565  S
C110       C1349   1.482       .  S
Fe111       O127   2.024       .  S
Fe111       O117   2.069       .  S
Fe111       O124   2.049       .  S
Fe111       O116   2.029   1_455  S
Fe111       O122   1.932       .  S
Fe112       O115   2.057       .  S
Fe112       O119   2.126       .  S
Fe112       O123   2.052       .  S
Fe112       O128   2.116       .  S
Fe112       O122   1.967       .  S
Fe113       O131   2.094       .  S
Fe113       O118   2.044       .  S
Fe113       O125   2.065       .  S
Fe113       O114   2.120   1_455  S
Fe113       O122   1.960       .  S
O114        C121   1.276       .  A
O115        C129   1.264       .  A
O116        C121   1.260       .  A
O117        C120   1.271       .  A
O118        C130   1.268       .  A
O119        C132   1.282       .  A
C120        O125   1.269       .  A
C120       C1541   1.471       .  S
C121       C1346   1.486       .  S
O123        C126   1.261       .  A
O124        C126   1.266       .  A
C126       C1397   1.463       .  S
O127        C132   1.261       .  A
O128        C130   1.282       .  A
C129        O131   1.276       .  A
C129       C1314   1.498       .  S
C130       C1301   1.493       .  S
C132       C1666   1.483       .  S
Fe133       O149   2.048       .  S
Fe133       O139   2.068   1_554  S
Fe133       O146   2.068       .  S
Fe133       O138   2.053       .  S
Fe133       O144   1.963       .  S
Fe134       O137   2.040       .  S
Fe134       O141   2.093       .  S
Fe134       O145   2.062       .  S
Fe134       O150   2.083       .  S
Fe134       O144   1.993       .  S
Fe135       O153   2.072   1_554  S
Fe135       O140   2.052       .  S
Fe135       O147   2.067   1_554  S
Fe135       O136   2.082       .  S
Fe135       O144   1.989       .  S
O136        C143   1.271       .  A
O137        C151   1.266       .  A
O138        C143   1.268       .  A
O139        C142   1.269       .  A
O140        C152   1.268       .  A
O141        C154   1.272       .  A
C142        O147   1.266       .  A
C142       C1285   1.476       .  S
C143       C1237   1.472       .  S
O145        C148   1.265       .  A
O146        C148   1.268       .  A
C148       C1221   1.472       .  S
O149        C154   1.267       .  A
O150        C152   1.271       .  A
C151        O153   1.270   1_554  A
C151       C1269   1.473   1_554  S
C152       C1205   1.491       .  S
C154       C1253   1.486   1_554  S
Fe155       O171   2.043       .  S
Fe155       O161   2.052   1_565  S
Fe155       O168   2.053       .  S
Fe155       O160   2.046   1_556  S
Fe155       O166   1.961       .  S
Fe156       O159   2.078       .  S
Fe156       O163   2.077       .  S
Fe156       O167   2.095       .  S
Fe156       O172   2.061       .  S
Fe156       O166   1.994       .  S
Fe157       O175   2.061       .  S
Fe157       O162   2.054       .  S
Fe157       O169   2.083   1_565  S
Fe157       O158   2.072   1_556  S
Fe157       O166   1.987       .  S
O158        C165   1.268       .  A
O159        C173   1.274       .  A
O160        C165   1.266       .  A
O161        C164   1.267       .  A
O162        C174   1.264       .  A
O163        C176   1.268       .  A
C164        O169   1.269       .  A
C164       C1250   1.485       .  S
C165       C1186   1.466       .  S
O167        C170   1.272       .  A
O168        C170   1.267       .  A
C170       C1154   1.489       .  S
O171        C176   1.264       .  A
O172        C174   1.266       .  A
C173        O175   1.270       .  A
C173       C1378   1.480   1_565  S
C174       C1138   1.474       .  S
C176       C1170   1.474       .  S
Fe177       O193   2.037       .  S
Fe177       O183   2.049   1_565  S
Fe177       O190   2.049       .  S
Fe177       O182   2.048       .  S
Fe177       O188   1.962       .  S
Fe178       O181   2.069       .  S
Fe178       O185   2.070       .  S
Fe178       O189   2.080       .  S
Fe178       O194   2.045       .  S
Fe178       O188   1.987       .  S
Fe179       O197   2.060       .  S
Fe179       O184   2.077       .  S
Fe179       O191   2.088   1_565  S
Fe179       O180   2.086       .  S
Fe179       O188   1.985       .  S
O180        C187   1.268       .  A
O181        C195   1.269       .  A
O182        C187   1.262       .  A
O183        C186   1.270       .  A
O184        C196   1.271       .  A
O185        C198   1.264       .  A
C186        O191   1.273       .  A
C186       C1218   1.471       .  S
C187       C1122   1.478   1_565  S
O189        C192   1.272       .  A
O190        C192   1.268       .  A
C192       C1090   1.480       .  S
O193        C198   1.262       .  A
O194        C196   1.268       .  A
C195        O197   1.267       .  A
C195       C1653   1.483       .  S
C196       C1106   1.490       .  S
C198       C1189   1.477       .  S
Fe199       O215   2.048       .  S
Fe199       O205   2.058   1_554  S
Fe199       O212   2.059       .  S
Fe199       O204   2.035   1_545  S
Fe199       O210   1.953       .  S
Fe200       O203   2.058       .  S
Fe200       O207   2.093       .  S
Fe200       O211   2.077       .  S
Fe200       O216   2.071       .  S
Fe200       O210   1.982       .  S
Fe201       O219   2.065       .  S
Fe201       O206   2.074   1_545  S
Fe201       O213   2.086   1_554  S
Fe201       O202   2.087   1_545  S
Fe201       O210   1.984       .  S
O202        C209   1.270       .  A
O203        C217   1.263       .  A
O204        C209   1.264       .  A
O205        C208   1.269       .  A
O206        C218   1.273   1_565  A
O207        C220   1.274       .  A
C208        O213   1.271       .  A
C208       C1058   1.482       .  S
C209       C1077   1.481       .  S
O211        C214   1.267       .  A
O212        C214   1.265       .  A
C214       C1125   1.476       .  S
O215        C220   1.268       .  A
O216        C218   1.275       .  A
C217        O219   1.269       .  A
C217       C1045   1.498       .  S
C218       C1509   1.497   1_545  S
C220       C1234   1.485       .  S
Fe221       O237   2.046       .  S
Fe221       O227   2.047       .  S
Fe221       O234   2.043       .  S
Fe221       O226   2.045   1_556  S
Fe221       O232   1.956       .  S
Fe222       O225   2.056       .  S
Fe222       O229   2.085       .  S
Fe222       O233   2.078       .  S
Fe222       O238   2.059       .  S
Fe222       O232   1.992       .  S
Fe223       O241   2.043       .  S
Fe223       O228   2.073       .  S
Fe223       O235   2.088       .  S
Fe223       O224   2.076   1_556  S
Fe223       O232   1.987       .  S
O224        C231   1.267       .  A
O225        C239   1.269       .  A
O226        C231   1.266       .  A
O227        C230   1.267       .  A
O228        C240   1.271       .  A
O229        C242   1.269       .  A
C230        O235   1.271       .  A
C230       C1157   1.475       .  S
C231       C1093   1.478       .  S
O233        C236   1.268       .  A
O234        C236   1.267       .  A
C236       C1074   1.478       .  S
O237        C242   1.265       .  A
O238        C240   1.270       .  A
C239        O241   1.262       .  A
C239        C994   1.486       .  S
C240       C1026   1.480   1_556  S
C242       C1013   1.484       .  S
Fe243       O259   2.048       .  S
Fe243       O249   2.049       .  S
Fe243       O256   2.059       .  S
Fe243       O248   2.046   1_545  S
Fe243       O254   1.960       .  S
Fe244       O247   2.068       .  S
Fe244       O251   2.083       .  S
Fe244       O255   2.084       .  S
Fe244       O260   2.066       .  S
Fe244       O254   1.989       .  S
Fe245       O263   2.076       .  S
Fe245       O250   2.062       .  S
Fe245       O257   2.070       .  S
Fe245       O246   2.091   1_545  S
Fe245       O254   1.989       .  S
O246        C253   1.273       .  A
O247        C261   1.273       .  A
O248        C253   1.267       .  A
O249        C252   1.265       .  A
O250        C262   1.266       .  A
O251        C264   1.267       .  A
C252        O257   1.266       .  A
C252       C1173   1.471       .  S
C253       C1010   1.476       .  S
O255        C258   1.272       .  A
O256        C258   1.270       .  A
C258       C1061   1.486       .  S
O259        C264   1.265       .  A
O260        C262   1.266       .  A
C261        O263   1.274       .  A
C261        C981   1.481       .  S
C262       C1365   1.481       .  S
C264       C1282   1.482       .  S
Fe265       O281   2.067       .  S
Fe265       O271   2.024   1_455  S
Fe265       O278   2.027       .  S
Fe265       O270   2.060       .  S
Fe265       O276   1.950       .  S
Fe266       O269   2.068       .  S
Fe266       O273   2.080       .  S
Fe266       O277   2.097       .  S
Fe266       O282   2.068       .  S
Fe266       O276   1.985       .  S
Fe267       O285   2.055   1_455  S
Fe267       O272   2.070       .  S
Fe267       O279   2.086   1_455  S
Fe267       O268   2.070       .  S
Fe267       O276   1.985       .  S
O268        C275   1.268       .  A
O269        C283   1.268       .  A
O270        C275   1.270       .  A
O271        C274   1.258       .  A
O272        C284   1.272       .  A
O273        C286   1.274       .  A
C274        O279   1.271       .  A
C274        C965   1.479       .  S
C275        C933   1.476       .  S
O277        C280   1.268       .  A
O278        C280   1.259       .  A
C280        C917   1.483       .  S
O281        C286   1.273       .  A
O282        C284   1.274       .  A
C283        O285   1.264   1_455  A
C283       C1445   1.478   1_455  S
C284        C901   1.469       .  S
C286        C946   1.480       .  S
Fe287       O303   2.047       .  S
Fe287       O293   2.050   1_556  S
Fe287       O300   2.045       .  S
Fe287       O292   2.046   1_655  S
Fe287       O298   1.959       .  S
Fe288       O291   2.053       .  S
Fe288       O295   2.098       .  S
Fe288       O299   2.076       .  S
Fe288       O304   2.081       .  S
Fe288       O298   1.991       .  S
Fe289       O307   2.071       .  S
Fe289       O294   2.057       .  S
Fe289       O301   2.083   1_556  S
Fe289       O290   2.087   1_655  S
Fe289       O298   1.984       .  S
O290        C297   1.270       .  A
O291        C305   1.265       .  A
O292        C297   1.264       .  A
O293        C296   1.268       .  A
O294        C306   1.273       .  A
O295        C308   1.274       .  A
C296        O301   1.271       .  A
C296        C949   1.484       .  S
C297        C885   1.473       .  S
O299        C302   1.266       .  A
O300        C302   1.263       .  A
C302        C850   1.478       .  S
O303        C308   1.269       .  A
O304        C306   1.273       .  A
C305        O307   1.268       .  A
C305       C1042   1.473       .  S
C306       C1413   1.489       .  S
C308        C866   1.495       .  S
Fe309       O325   2.058       .  S
Fe309       O315   2.046   1_556  S
Fe309       O322   2.053       .  S
Fe309       O314   2.066       .  S
Fe309       O320   1.961       .  S
Fe310       O313   2.070       .  S
Fe310       O317   2.074       .  S
Fe310       O321   2.076       .  S
Fe310       O326   2.052       .  S
Fe310       O320   1.982       .  S
Fe311       O329   2.046       .  S
Fe311       O316   2.089       .  S
Fe311       O323   2.114   1_556  S
Fe311       O312   2.067       .  S
Fe311       O320   1.978       .  S
O312        C319   1.264       .  A
O313        C327   1.270       .  A
O314        C319   1.269       .  A
O315        C318   1.266       .  A
O316        C328   1.275       .  A
O317        C330   1.266       .  A
C318        O323   1.278       .  A
C318        C914   1.486       .  S
C319        C834   1.482       .  S
O321        C324   1.272       .  A
O322        C324   1.271       .  A
C324        C805   1.484       .  S
O325        C330   1.265       .  A
O326        C328   1.263       .  A
C327        O329   1.269       .  A
C327       C1266   1.474       .  S
C328        C821   1.505       .  S
C330        C882   1.479       .  S
Fe331       O347   2.049       .  S
Fe331       O337   2.050   1_455  S
Fe331       O344   2.044       .  S
Fe331       O336   2.049   1_554  S
Fe331       O342   1.950       .  S
Fe332       O335   2.079       .  S
Fe332       O339   2.066       .  S
Fe332       O343   2.095       .  S
Fe332       O348   2.038       .  S
Fe332       O342   1.980       .  S
Fe333       O351   2.060       .  S
Fe333       O338   2.084       .  S
Fe333       O345   2.113   1_455  S
Fe333       O334   2.079   1_554  S
Fe333       O342   1.980       .  S
O334        C341   1.267       .  A
O335        C349   1.274       .  A
O336        C341   1.267       .  A
O337        C340   1.268       .  A
O338        C350   1.271       .  A
O339        C352   1.263       .  A
C340        O345   1.278       .  A
C340        C773   1.491       .  S
C341        C786   1.481   1_455  S
O343        C346   1.276       .  A
O344        C346   1.270       .  A
C346        C837   1.483       .  S
O347        C352   1.262       .  A
O348        C350   1.264       .  A
C349        O351   1.271       .  A
C349       C1570   1.476       .  S
C350       C1141   1.480   1_554  S
C352        C930   1.469       .  S
Fe353       O369   2.047       .  S
Fe353       O359   2.046       .  S
Fe353       O366   2.041       .  S
Fe353       O358   2.038   1_655  S
Fe353       O364   1.963       .  S
Fe354       O357   2.059       .  S
Fe354       O361   2.097       .  S
Fe354       O365   2.077       .  S
Fe354       O370   2.083       .  S
Fe354       O364   1.985       .  S
Fe355       O373   2.059       .  S
Fe355       O360   2.064       .  S
Fe355       O367   2.075       .  S
Fe355       O356   2.081   1_655  S
Fe355       O364   1.985       .  S
O356        C363   1.270       .  A
O357        C371   1.267       .  A
O358        C363   1.265       .  A
O359        C362   1.265       .  A
O360        C372   1.267       .  A
O361        C374   1.274       .  A
C362        O367   1.267       .  A
C362        C853   1.469       .  S
C363        C802   1.473       .  S
O365        C368   1.268       .  A
O366        C368   1.263       .  A
C368        C789   1.471       .  S
O369        C374   1.266       .  A
O370        C372   1.275       .  A
C371        O373   1.269       .  A
C371        C738   1.480       .  S
C372       C1298   1.496       .  S
C374        C754   1.492       .  S
Fe375       O391   2.033       .  S
Fe375       O381   2.073       .  S
Fe375       O388   2.055       .  S
Fe375       O380   2.042   1_554  S
Fe375       O386   1.946       .  S
Fe376       O379   2.069       .  S
Fe376       O383   2.088       .  S
Fe376       O387   2.092       .  S
Fe376       O392   2.080       .  S
Fe376       O386   1.979       .  S
Fe377       O395   2.069       .  S
Fe377       O382   2.054       .  S
Fe377       O389   2.069       .  S
Fe377       O378   2.095   1_554  S
Fe377       O386   1.983       .  S
O378        C385   1.271       .  A
O379        C393   1.268       .  A
O380        C385   1.261       .  A
O381        C384   1.271       .  A
O382        C394   1.274       .  A
O383        C396   1.274       .  A
C384        O389   1.268       .  A
C384        C869   1.478       .  S
C385        C757   1.470       .  S
O387        C390   1.270       .  A
O388        C390   1.263       .  A
C390        C770   1.487       .  S
O391        C396   1.270       .  A
O392        C394   1.276       .  A
C393        O395   1.266       .  A
C393        C722   1.490       .  S
C394       C1029   1.475       .  S
C396        C962   1.471       .  S
Fe397       O413   2.058       .  S
Fe397       O403   2.043       .  S
Fe397       O410   2.031       .  S
Fe397       O402   2.048       .  S
Fe397       O408   1.961       .  S
Fe398       O401   2.060       .  S
Fe398       O405   2.083       .  S
Fe398       O409   2.079       .  S
Fe398       O414   2.065       .  S
Fe398       O408   1.991       .  S
Fe399       O417   2.079       .  S
Fe399       O404   2.088       .  S
Fe399       O411   2.096       .  S
Fe399       O400   2.097       .  S
Fe399       O408   1.984       .  S
O400        C407   1.272       .  A
O401        C415   1.264       .  A
O402        C407   1.266       .  A
O403        C406   1.266       .  A
O404        C416   1.278       .  A
O405        C418   1.273       .  A
C406        O411   1.274       .  A
C406        C690   1.482       .  S
C407        C709   1.489       .  S
O409        C412   1.266       .  A
O410        C412   1.260       .  A
C412        C677   1.472       .  S
O413        C418   1.271       .  A
O414        C416   1.273       .  A
C415        O417   1.269       .  A
C415        C725   1.483       .  S
C416       C1202   1.485       .  S
C418        C658   1.484       .  S
Fe419       O435   2.034       .  S
Fe419       O425   2.051       .  S
Fe419       O432   2.068       .  S
Fe419       O424   2.028       .  S
Fe419       O430   1.946       .  S
Fe420       O423   2.051       .  S
Fe420       O427   2.090       .  S
Fe420       O431   2.078       .  S
Fe420       O436   2.065       .  S
Fe420       O430   1.983       .  S
Fe421       O439   2.078       .  S
Fe421       O426   2.043       .  S
Fe421       O433   2.062       .  S
Fe421       O422   2.095       .  S
Fe421       O430   1.980       .  S
O422        C429   1.276       .  A
O423        C437   1.274       .  A
O424        C429   1.263       .  A
O425        C428   1.266       .  A
O426        C438   1.260       .  A
O427        C440   1.268       .  A
C428        O433   1.262       .  A
C428        C645   1.480       .  S
C429        C626   1.476       .  S
O431        C434   1.271       .  A
O432        C434   1.273       .  A
C434        C693   1.488       .  S
O435        C440   1.259       .  A
O436        C438   1.264       .  A
C437        O439   1.277       .  A
C437       C1333   1.474       .  S
C438       C1109   1.473       .  S
C440        C610   1.477       .  S
Fe441       O457   2.061       .  S
Fe441       O447   2.050       .  S
Fe441       O454   2.035       .  S
Fe441       O446   2.051       .  S
Fe441       O452   1.941       .  S
Fe442       O445   2.095       .  S
Fe442       O449   2.072       .  S
Fe442       O453   2.124       .  S
Fe442       O458   2.049       .  S
Fe442       O452   1.966       .  S
Fe443       O461   2.052       .  S
Fe443       O448   2.092       .  S
Fe443       O455   2.102       .  S
Fe443       O444   2.066       .  S
Fe443       O452   1.961       .  S
O444        C451   1.263       .  A
O445        C459   1.271       .  A
O446        C451   1.263       .  A
O447        C450   1.270       .  A
O448        C460   1.277       .  A
O449        C462   1.267       .  A
C450        O455   1.279       .  A
C450        C578   1.476       .  S
C451        C594   1.471       .  S
O453        C456   1.278       .  A
O454        C456   1.265       .  A
C456        C706   1.501       .  S
O457        C462   1.269       .  A
O458        C460   1.274       .  A
C459        O461   1.263       .  A
C459       C1317   1.489       .  S
C460        C898   1.501       .  S
C462        C629   1.479       .  S
Fe463       O479   2.032       .  S
Fe463       O469   2.060       .  S
Fe463       O476   2.064       .  S
Fe463       O468   2.030       .  S
Fe463       O474   1.959       .  S
Fe464       O467   2.050       .  S
Fe464       O471   2.094       .  S
Fe464       O475   2.070       .  S
Fe464       O480   2.084       .  S
Fe464       O474   1.991       .  S
Fe465       O483   2.072       .  S
Fe465       O470   2.065       .  S
Fe465       O477   2.080       .  S
Fe465       O466   2.091       .  S
Fe465       O474   1.992       .  S
O466        C473   1.273       .  A
O467        C481   1.268       .  A
O468        C473   1.264       .  A
O469        C472   1.269       .  A
O470        C482   1.268       .  A
O471        C484   1.271       .  A
C472        O477   1.267       .  A
C472        C562   1.484       .  S
C473        C546   1.474       .  S
O475        C478   1.269       .  A
O476        C478   1.269       .  A
C478        C581   1.473       .  S
O479        C484   1.262       .  A
O480        C482   1.271       .  A
C481        O483   1.272       .  A
C481        C997   1.465       .  S
C482        C818   1.483       .  S
C484        C642   1.482       .  S
Fe485       O501   2.066       .  S
Fe485       O491   2.047       .  S
Fe485       O498   2.040       .  S
Fe485       O490   2.058       .  S
Fe485       O496   1.943       .  S
Fe486       O489   2.071       .  S
Fe486       O493   2.069       .  S
Fe486       O497   2.095       .  S
Fe486       O502   2.051       .  S
Fe486       O496   1.975       .  S
Fe487       O505   2.043       .  S
Fe487       O492   2.094       .  S
Fe487       O499   2.099       .  S
Fe487       O488   2.062       .  S
Fe487       O496   1.965       .  S
O488        C495   1.262       .  A
O489        C503   1.265       .  A
O490        C495   1.264       .  A
O491        C494   1.270       .  A
O492        C504   1.282       .  A
O493        C506   1.267       .  A
C494        O499   1.279       .  A
C494        C533   1.471       .  S
C495        C674   1.472       .  S
O497        C500   1.271       .  A
O498        C500   1.265       .  A
C500        C597   1.486       .  S
O501        C506   1.271       .  A
O502        C504   1.272       .  A
C503        O505   1.262       .  A
C503        C978   1.480       .  S
C504       C1589   1.478       .  S
C506        C549   1.480       .  S
Fe507       O523   2.041       .  S
Fe507       O513   2.070       .  S
Fe507       O520   2.069       .  S
Fe507       O512   2.058       .  S
Fe507       O518   1.959       .  S
Fe508       O511   2.063       .  S
Fe508       O515   2.096       .  S
Fe508       O519   2.082       .  S
Fe508       O524   2.089       .  S
Fe508       O518   1.990       .  S
Fe509       O527   2.068       .  S
Fe509       O514   2.054       .  S
Fe509       O521   2.070       .  S
Fe509       O510   2.082       .  S
Fe509       O518   1.981       .  S
O510        C517   1.273       .  A
O511        C525   1.274       .  A
O512        C517   1.271       .  A
O513        C516   1.267       .  A
O514        C526   1.265       .  A
O515        C528   1.270       .  A
C516        O521   1.265       .  A
C516        C613   1.479       .  S
C517        C661   1.482       .  S
O519        C522   1.274       .  A
O520        C522   1.272       .  A
C522        C530   1.483       .  S
O523        C528   1.262       .  A
O524        C526   1.269       .  A
C525        O527   1.274       .  A
C525        C741   1.473       .  S
C526       C1477   1.498       .  S
C528        C565   1.486       .  S
C529        C530   1.406       .  A
C529        C534   1.413       .  A
C529        H536   1.083       .  S
C530        C531   1.418       .  A
C531        C532   1.403       .  A
C531        C538   1.514       .  S
C532        C533   1.398       .  A
C532        H537   1.084       .  S
C533        C534   1.414       .  A
C534        C535   1.516       .  S
C535        F539   1.381       .  S
C535        F540   1.384       .  S
C535        F541   1.383       .  S
C538        F542   1.383       .  S
C538        F543   1.379       .  S
C538        F544   1.381       .  S
C545        C546   1.406       .  A
C545        C550   1.417       .  A
C545        H552   1.083       .  S
C546        C547   1.419       .  A
C547        C548   1.388       .  A
C547        C554   1.520       .  S
C548        C549   1.398       .  A
C548        H553   1.085       .  S
C549        C550   1.419       .  A
C550        C551   1.514       .  S
C551        F555   1.385       .  S
C551        F556   1.382       .  S
C551        F557   1.381       .  S
C554        F558   1.374       .  S
C554        F559   1.383       .  S
C554        F560   1.384       .  S
C561        C562   1.398       .  A
C561        C566   1.400       .  A
C561        H568   1.082       .  S
C562        C563   1.421       .  A
C563        C564   1.416       .  A
C563        C570   1.517       .  S
C564        C565   1.405       .  A
C564        H569   1.083       .  S
C565        C566   1.415       .  A
C566        C567   1.509       .  S
C567        F571   1.385       .  S
C567        F572   1.382       .  S
C567        F573   1.384       .  S
C570        F574   1.380       .  S
C570        F575   1.383       .  S
C570        F576   1.384       .  S
C577        C578   1.405       .  A
C577        C582   1.409       .  A
C577        H584   1.083       .  S
C578        C579   1.415       .  A
C579        C580   1.406       .  A
C579        C586   1.516       .  S
C580        C581   1.401       .  A
C580        H585   1.083       .  S
C581        C582   1.415       .  A
C582        C583   1.518       .  S
C583        F587   1.384       .  S
C583        F588   1.383       .  S
C583        F589   1.383       .  S
C586        F590   1.382       .  S
C586        F591   1.383       .  S
C586        F592   1.384       .  S
C593        C594   1.402       .  A
C593        C598   1.411       .  A
C593        H600   1.082       .  S
C594        C595   1.411       .  A
C595        C596   1.399       .  A
C595        C602   1.513       .  S
C596        C597   1.404       .  A
C596        H601   1.085       .  S
C597        C598   1.421       .  A
C598        C599   1.516       .  S
C599        F603   1.385       .  S
C599        F604   1.382       .  S
C599        F605   1.383       .  S
C602        F606   1.382       .  S
C602        F607   1.383       .  S
C602        F608   1.383       .  S
C609        C610   1.402       .  A
C609        C614   1.405       .  A
C609        H616   1.084       .  S
C610        C611   1.413       .  A
C611        C612   1.406       .  A
C611        C618   1.511       .  S
C612        C613   1.404       .  A
C612        H617   1.083       .  S
C613        C614   1.415       .  A
C614        C615   1.510       .  S
C615        F619   1.382       .  S
C615        F620   1.383       .  S
C615        F621   1.381       .  S
C618        F622   1.383       .  S
C618        F623   1.382       .  S
C618        F624   1.385       .  S
C625        C626   1.407       .  A
C625        C630   1.415       .  A
C625        H632   1.083       .  S
C626        C627   1.422       .  A
C627        C628   1.393       .  A
C627        C634   1.526       .  S
C628        C629   1.399       .  A
C628        H633   1.084       .  S
C629        C630   1.417       .  A
C630        C631   1.514       .  S
C631        F635   1.385       .  S
C631        F636   1.383       .  S
C631        F637   1.382       .  S
C634        F638   1.379       .  S
C634        F639   1.383       .  S
C634        F640   1.385       .  S
C641        C642   1.404       .  A
C641        C646   1.413       .  A
C641        H648   1.083       .  S
C642        C643   1.418       .  A
C643        C644   1.397       .  A
C643        C650   1.514       .  S
C644        C645   1.398       .  A
C644        H649   1.086       .  S
C645        C646   1.422       .  A
C646        C647   1.520       .  S
C647        F651   1.385       .  S
C647        F652   1.381       .  S
C647        F653   1.383       .  S
C650        F654   1.383       .  S
C650        F655   1.381       .  S
C650        F656   1.384       .  S
C657        C658   1.408       .  A
C657        C662   1.415       .  A
C657        H664   1.083       .  S
C658        C659   1.417       .  A
C659        C660   1.399       .  A
C659        C666   1.519       .  S
C660        C661   1.403       .  A
C660        H665   1.085       .  S
C661        C662   1.417       .  A
C662        C663   1.516       .  S
C663        F667   1.383       .  S
C663        F668   1.384       .  S
C663        F669   1.378       .  S
C666        F670   1.379       .  S
C666        F671   1.383       .  S
C666        F672   1.381       .  S
C673        C674   1.405       .  A
C673        C678   1.409       .  A
C673        H680   1.084       .  S
C674        C675   1.410       .  A
C675        C676   1.401       .  A
C675        C682   1.512       .  S
C676        C677   1.403       .  A
C676        H681   1.084       .  S
C677        C678   1.415       .  A
C678        C679   1.518       .  S
C679        F683   1.385       .  S
C679        F684   1.383       .  S
C679        F685   1.383       .  S
C682        F686   1.382       .  S
C682        F687   1.383       .  S
C682        F688   1.384       .  S
C689        C690   1.405       .  A
C689        C694   1.417       .  A
C689        H696   1.083       .  S
C690        C691   1.418       .  A
C691        C692   1.396       .  A
C691        C698   1.516       .  S
C692        C693   1.402       .  A
C692        H697   1.086       .  S
C693        C694   1.421       .  A
C694        C695   1.514       .  S
C695        F699   1.384       .  S
C695        F700   1.378       .  S
C695        F701   1.382       .  S
C698        F702   1.383       .  S
C698        F703   1.379       .  S
C698        F704   1.384       .  S
C705        C706   1.408       .  A
C705        C710   1.402       .  A
C705        H712   1.080       .  S
C706        C707   1.422       .  A
C707        C708   1.417       .  A
C707        C714   1.515       .  S
C708        C709   1.407       .  A
C708        H713   1.083       .  S
C709        C710   1.412       .  A
C710        C711   1.516       .  S
C711        F715   1.384       .  S
C711        F716   1.383       .  S
C711        F717   1.384       .  S
C714        F718   1.382       .  S
C714        F719   1.383       .  S
C714        F720   1.384       .  S
C721        C722   1.407       .  A
C721        C726   1.408       .  A
C721        H728   1.083       .  S
C722        C723   1.421       .  A
C723        C724   1.411       .  A
C723        C730   1.521       .  S
C724        C725   1.405       .  A
C724        H729   1.081       .  S
C725        C726   1.413       .  A
C726        C727   1.518       .  S
C727        F731   1.384       .  S
C727        F732   1.384       .  S
C727        F733   1.382       .  S
C730        F734   1.384       .  S
C730        F735   1.382       .  S
C730        F736   1.385       .  S
C737        C738   1.406       .  A
C737        C742   1.404       .  A
C737        H744   1.083       .  S
C738        C739   1.421       .  A
C739        C740   1.405       .  A
C739        C746   1.521       .  S
C740        C741   1.402       .  A
C740        H745   1.084       .  S
C741        C742   1.414       .  A
C742        C743   1.520       .  S
C743        F747   1.385       .  S
C743        F748   1.382       .  S
C743        F749   1.384       .  S
C746        F750   1.383       .  S
C746        F751   1.383       .  S
C746        F752   1.385       .  S
C753        C754   1.408       .  A
C753        C758   1.410       .  A
C753        H760   1.084       .  S
C754        C755   1.423       .  A
C755        C756   1.401       .  A
C755        C762   1.513       .  S
C756        C757   1.396       .  A
C756        H761   1.086       .  S
C757        C758   1.412       .  A
C758        C759   1.512       .  S
C759        F763   1.384       .  S
C759        F764   1.382       .  S
C759        F765   1.384       .  S
C762        F766   1.384       .  S
C762        F767   1.384       .  S
C762        F768   1.381       .  S
C769        C770   1.404       .  A
C769        C774   1.409       .  A
C769        H776   1.085       .  S
C770        C771   1.417       .  A
C771        C772   1.414       .  A
C771        C778   1.516   1_554  S
C772        C773   1.407       .  A
C772        H777   1.083       .  S
C773        C774   1.419       .  A
C774        C775   1.517       .  S
C775        F779   1.384       .  S
C775        F780   1.384       .  S
C775        F781   1.383       .  S
C778        F782   1.380   1_556  S
C778        F783   1.382       .  S
C778        F784   1.384       .  S
C785        C786   1.403       .  A
C785        C790   1.395       .  A
C785        H792   1.084       .  S
C786        C787   1.417   1_655  A
C787        C788   1.415   1_455  A
C787        C794   1.513       .  S
C788        C789   1.406       .  A
C788        H793   1.083   1_655  S
C789        C790   1.414       .  A
C790        C791   1.523       .  S
C791        F795   1.384       .  S
C791        F796   1.381       .  S
C791        F797   1.383       .  S
C794        F798   1.378       .  S
C794        F799   1.382       .  S
C794        F800   1.385       .  S
C801        C802   1.402       .  A
C801        C806   1.410       .  A
C801        H808   1.082       .  S
C802        C803   1.414       .  A
C803        C804   1.399       .  A
C803        C810   1.518       .  S
C804        C805   1.405       .  A
C804        H809   1.085       .  S
C805        C806   1.422       .  A
C806        C807   1.520       .  S
C807        F811   1.384       .  S
C807        F812   1.383       .  S
C807        F813   1.383       .  S
C810        F814   1.383       .  S
C810        F815   1.383       .  S
C810        F816   1.383       .  S
C817        C818   1.398       .  A
C817        C822   1.414       .  A
C817        H824   1.083       .  S
C818        C819   1.412       .  A
C819        C820   1.405       .  A
C819        C826   1.513       .  S
C820        C821   1.407       .  A
C820        H825   1.082       .  S
C821        C822   1.434       .  A
C822        C823   1.522       .  S
C823        F827   1.385       .  S
C823        F828   1.384       .  S
C823        F829   1.383       .  S
C826        F830   1.383       .  S
C826        F831   1.383       .  S
C826        F832   1.384       .  S
C833        C834   1.402       .  A
C833        C838   1.397       .  A
C833        H840   1.085       .  S
C834        C835   1.428   1_556  A
C835        C836   1.412       .  A
C835        C842   1.517       .  S
C836        C837   1.402       .  A
C836        H841   1.084       .  S
C837        C838   1.413   1_554  A
C838        C839   1.513       .  S
C839        F843   1.383       .  S
C839        F844   1.383       .  S
C839        F845   1.382       .  S
C842        F846   1.383       .  S
C842        F847   1.377       .  S
C842        F848   1.381       .  S
C849        C850   1.401       .  A
C849        C854   1.399       .  A
C849        H856   1.081       .  S
C850        C851   1.416       .  A
C851        C852   1.409       .  A
C851        C858   1.512       .  S
C852        C853   1.402       .  A
C852        H857   1.082       .  S
C853        C854   1.412       .  A
C854        C855   1.514   1_655  S
C855        F859   1.384       .  S
C855        F860   1.383       .  S
C855        F861   1.382       .  S
C858        F862   1.384       .  S
C858        F863   1.381       .  S
C858        F864   1.382       .  S
C865        C866   1.407   1_554  A
C865        C870   1.398       .  A
C865        H872   1.085       .  S
C866        C867   1.423       .  A
C867        C868   1.417       .  A
C867        C874   1.516       .  S
C868        C869   1.405   1_556  A
C868        H873   1.083       .  S
C869        C870   1.411       .  A
C870        C871   1.516       .  S
C871        F875   1.382       .  S
C871        F876   1.382       .  S
C871        F877   1.383       .  S
C874        F878   1.383       .  S
C874        F879   1.378       .  S
C874        F880   1.385       .  S
C881        C882   1.406       .  A
C881        C886   1.412       .  A
C881        H888   1.083       .  S
C882        C883   1.416       .  A
C883        C884   1.401       .  A
C883        C890   1.514   1_556  S
C884        C885   1.399       .  A
C884        H889   1.084       .  S
C885        C886   1.413       .  A
C886        C887   1.514       .  S
C887        F891   1.384       .  S
C887        F892   1.380       .  S
C887        F893   1.384       .  S
C890        F894   1.383       .  S
C890        F895   1.381       .  S
C890        F896   1.384       .  S
C897        C898   1.414       .  A
C897        C902   1.400       .  A
C897        H904   1.079       .  S
C898        C899   1.429       .  A
C899        C900   1.412       .  A
C899        C906   1.521       .  S
C900        C901   1.400       .  A
C900        H905   1.080       .  S
C901        C902   1.408       .  A
C902        C903   1.521       .  S
C903        F907   1.384       .  S
C903        F908   1.382       .  S
C903        F909   1.383       .  S
C906        F910   1.382       .  S
C906        F911   1.384       .  S
C906        F912   1.385       .  S
C913        C914   1.408       .  A
C913        C918   1.414       .  A
C913        H920   1.074       .  S
C914        C915   1.414       .  A
C915        C916   1.405       .  A
C915        C922   1.511       .  S
C916        C917   1.403       .  A
C916        H921   1.080       .  S
C917        C918   1.416       .  A
C918        C919   1.516       .  S
C919        F923   1.384       .  S
C919        F924   1.383       .  S
C919        F925   1.383       .  S
C922        F926   1.382       .  S
C922        F927   1.385       .  S
C922        F928   1.382       .  S
C929        C930   1.400       .  A
C929        C934   1.407       .  A
C929        H936   1.083       .  S
C930        C931   1.413       .  A
C931        C932   1.404       .  A
C931        C938   1.514       .  S
C932        C933   1.402       .  A
C932        H937   1.083       .  S
C933        C934   1.419       .  A
C934        C935   1.519       .  S
C935        F939   1.385   1_455  S
C935        F940   1.383       .  S
C935        F941   1.380   1_455  S
C938        F942   1.383       .  S
C938        F943   1.381       .  S
C938        F944   1.384       .  S
C945        C946   1.404       .  A
C945        C950   1.415       .  A
C945        H952   1.083       .  S
C946        C947   1.416   1_455  A
C947        C948   1.399       .  A
C947        C954   1.517       .  S
C948        C949   1.402       .  A
C948        H953   1.085       .  S
C949        C950   1.421   1_655  A
C950        C951   1.516       .  S
C951        F955   1.385       .  S
C951        F956   1.381       .  S
C951        F957   1.383       .  S
C954        F958   1.383       .  S
C954        F959   1.382       .  S
C954        F960   1.382       .  S
C961        C962   1.397       .  A
C961        C966   1.392       .  A
C961        H968   1.084       .  S
C962        C963   1.412       .  A
C963        C964   1.415       .  A
C963        C970   1.514       .  S
C964        C965   1.409       .  A
C964        H969   1.083       .  S
C965        C966   1.426       .  A
C966        C967   1.529       .  S
C967        F971   1.386       .  S
C967        F972   1.383       .  S
C967        F973   1.379       .  S
C970        F974   1.383       .  S
C970        F975   1.383       .  S
C970        F976   1.384       .  S
C977        C978   1.403       .  A
C977        C982   1.402       .  A
C977        H984   1.084       .  S
C978        C979   1.417       .  A
C979        C980   1.411       .  A
C979        C986   1.518       .  S
C980        C981   1.407       .  A
C980        H985   1.083       .  S
C981        C982   1.417       .  A
C982        C983   1.519       .  S
C983        F987   1.385       .  S
C983        F988   1.382       .  S
C983        F989   1.382       .  S
C986        F990   1.383       .  S
C986        F991   1.384       .  S
C986        F992   1.384       .  S
C993        C994   1.410       .  A
C993        C998   1.402       .  A
C993       H1000   1.083       .  S
C994        C995   1.428       .  A
C995        C996   1.401       .  A
C995       C1002   1.525       .  S
C996        C997   1.393       .  A
C996       H1001   1.079       .  S
C997        C998   1.409       .  A
C998        C999   1.517       .  S
C999       F1003   1.385       .  S
C999       F1004   1.382       .  S
C999       F1005   1.383       .  S
C1002      F1006   1.383       .  S
C1002      F1007   1.380       .  S
C1002      F1008   1.384       .  S
C1009      C1010   1.401       .  A
C1009      C1014   1.399       .  A
C1009      H1016   1.086       .  S
C1010      C1011   1.420       .  A
C1011      C1012   1.413       .  A
C1011      C1018   1.515       .  S
C1012      C1013   1.405       .  A
C1012      H1017   1.084       .  S
C1013      C1014   1.418       .  A
C1014      C1015   1.516       .  S
C1015      F1019   1.383       .  S
C1015      F1020   1.383       .  S
C1015      F1021   1.384       .  S
C1018      F1022   1.382       .  S
C1018      F1023   1.380       .  S
C1018      F1024   1.383       .  S
C1025      C1026   1.405       .  A
C1025      C1030   1.405       .  A
C1025      H1032   1.083       .  S
C1026      C1027   1.419       .  A
C1027      C1028   1.404       .  A
C1027      C1034   1.517   1_554  S
C1028      C1029   1.401       .  A
C1028      H1033   1.083       .  S
C1029      C1030   1.414       .  A
C1030      C1031   1.516       .  S
C1031      F1035   1.384       .  S
C1031      F1036   1.383       .  S
C1031      F1037   1.382       .  S
C1034      F1038   1.382       .  S
C1034      F1039   1.382   1_556  S
C1034      F1040   1.385   1_556  S
C1041      C1042   1.399   1_554  A
C1041      C1046   1.410       .  A
C1041      H1048   1.083       .  S
C1042      C1043   1.412       .  A
C1043      C1044   1.404       .  A
C1043      C1050   1.521       .  S
C1044      C1045   1.411   1_556  A
C1044      H1049   1.082       .  S
C1045      C1046   1.429       .  A
C1046      C1047   1.522       .  S
C1047      F1051   1.385       .  S
C1047      F1052   1.383       .  S
C1047      F1053   1.383       .  S
C1050      F1054   1.382       .  S
C1050      F1055   1.383       .  S
C1050      F1056   1.385       .  S
C1057      C1058   1.401       .  A
C1057      C1062   1.396       .  A
C1057      H1064   1.085   1_545  S
C1058      C1059   1.417       .  A
C1059      C1060   1.417       .  A
C1059      C1066   1.514       .  S
C1060      C1061   1.408       .  A
C1060      H1065   1.083       .  S
C1061      C1062   1.417       .  A
C1062      C1063   1.516   1_545  S
C1063      F1067   1.384       .  S
C1063      F1068   1.381       .  S
C1063      F1069   1.383       .  S
C1066      F1070   1.383       .  S
C1066      F1071   1.379       .  S
C1066      F1072   1.385       .  S
C1073      C1074   1.400   1_554  A
C1073      C1078   1.395       .  A
C1073      H1080   1.085       .  S
C1074      C1075   1.417       .  A
C1075      C1076   1.413       .  A
C1075      C1082   1.515       .  S
C1076      C1077   1.407   1_556  A
C1076      H1081   1.083       .  S
C1077      C1078   1.414       .  A
C1078      C1079   1.509       .  S
C1079      F1083   1.384       .  S
C1079      F1084   1.384       .  S
C1079      F1085   1.384       .  S
C1082      F1086   1.383       .  S
C1082      F1087   1.383       .  S
C1082      F1088   1.385       .  S
C1089      C1090   1.404       .  A
C1089      C1094   1.410       .  A
C1089      H1096   1.083       .  S
C1090      C1091   1.417       .  A
C1091      C1092   1.401       .  A
C1091      C1098   1.517       .  S
C1092      C1093   1.402       .  A
C1092      H1097   1.085       .  S
C1093      C1094   1.419       .  A
C1094      C1095   1.518       .  S
C1095      F1099   1.385       .  S
C1095      F1100   1.383       .  S
C1095      F1101   1.382       .  S
C1098      F1102   1.384       .  S
C1098      F1103   1.383       .  S
C1098      F1104   1.384       .  S
C1105      C1106   1.410       .  A
C1105      C1110   1.400       .  A
C1105      H1112   1.082       .  S
C1106      C1107   1.422       .  A
C1107      C1108   1.410       .  A
C1107      C1114   1.520       .  S
C1108      C1109   1.404       .  A
C1108      H1113   1.083       .  S
C1109      C1110   1.412       .  A
C1110      C1111   1.522       .  S
C1111      F1115   1.385       .  S
C1111      F1116   1.382       .  S
C1111      F1117   1.383       .  S
C1114      F1118   1.383       .  S
C1114      F1119   1.383       .  S
C1114      F1120   1.385       .  S
C1121      C1122   1.401   1_565  A
C1121      C1126   1.409       .  A
C1121      H1128   1.084       .  S
C1122      C1123   1.415       .  A
C1123      C1124   1.404       .  A
C1123      C1130   1.510       .  S
C1124      C1125   1.398       .  A
C1124      H1129   1.084       .  S
C1125      C1126   1.417   1_545  A
C1126      C1127   1.510       .  S
C1127      F1131   1.383       .  S
C1127      F1132   1.378       .  S
C1127      F1133   1.383       .  S
C1130      F1134   1.383       .  S
C1130      F1135   1.382       .  S
C1130      F1136   1.385       .  S
C1137      C1138   1.404       .  A
C1137      C1142   1.409       .  A
C1137      H1144   1.083       .  S
C1138      C1139   1.415   1_556  A
C1139      C1140   1.401       .  A
C1139      C1146   1.521       .  S
C1140      C1141   1.405   1_554  A
C1140      H1145   1.083       .  S
C1141      C1142   1.416       .  A
C1142      C1143   1.515       .  S
C1143      F1147   1.385       .  S
C1143      F1148   1.382       .  S
C1143      F1149   1.383       .  S
C1146      F1150   1.382       .  S
C1146      F1151   1.382       .  S
C1146      F1152   1.385       .  S
C1153      C1154   1.407       .  A
C1153      C1158   1.416       .  A
C1153      H1160   1.084       .  S
C1154      C1155   1.419       .  A
C1155      C1156   1.397       .  A
C1155      C1162   1.514   1_556  S
C1156      C1157   1.397       .  A
C1156      H1161   1.086   1_556  S
C1157      C1158   1.421       .  A
C1158      C1159   1.516       .  S
C1159      F1163   1.382       .  S
C1159      F1164   1.383       .  S
C1159      F1165   1.381       .  S
C1162      F1166   1.381       .  S
C1162      F1167   1.383       .  S
C1162      F1168   1.384       .  S
C1169      C1170   1.403   1_545  A
C1169      C1174   1.403       .  A
C1169      H1176   1.082       .  S
C1170      C1171   1.416       .  A
C1171      C1172   1.407       .  A
C1171      C1178   1.518       .  S
C1172      C1173   1.403   1_565  A
C1172      H1177   1.083       .  S
C1173      C1174   1.411       .  A
C1174      C1175   1.513       .  S
C1175      F1179   1.384       .  S
C1175      F1180   1.384       .  S
C1175      F1181   1.379       .  S
C1178      F1182   1.383       .  S
C1178      F1183   1.383       .  S
C1178      F1184   1.385       .  S
C1185      C1186   1.403       .  A
C1185      C1190   1.412       .  A
C1185      H1192   1.081       .  S
C1186      C1187   1.409       .  A
C1187      C1188   1.393       .  A
C1187      C1194   1.516   1_565  S
C1188      C1189   1.402       .  A
C1188      H1193   1.080   1_565  S
C1189      C1190   1.418       .  A
C1190      C1191   1.516       .  S
C1191      F1195   1.385       .  S
C1191      F1196   1.383       .  S
C1191      F1197   1.383       .  S
C1194      F1198   1.381       .  S
C1194      F1199   1.382       .  S
C1194      F1200   1.384       .  S
C1201      C1202   1.404       .  A
C1201      C1206   1.412       .  A
C1201      H1208   1.083       .  S
C1202      C1203   1.418       .  A
C1203      C1204   1.403       .  A
C1203      C1210   1.520       .  S
C1204      C1205   1.405       .  A
C1204      H1209   1.083       .  S
C1205      C1206   1.422       .  A
C1206      C1207   1.518       .  S
C1207      F1211   1.385       .  S
C1207      F1212   1.382       .  S
C1207      F1213   1.384       .  S
C1210      F1214   1.382       .  S
C1210      F1215   1.382       .  S
C1210      F1216   1.385       .  S
C1217      C1218   1.397       .  A
C1217      C1222   1.404       .  A
C1217      H1224   1.081       .  S
C1218      C1219   1.412       .  A
C1219      C1220   1.408       .  A
C1219      C1226   1.518       .  S
C1220      C1221   1.403       .  A
C1220      H1225   1.083       .  S
C1221      C1222   1.413       .  A
C1222      C1223   1.513       .  S
C1223      F1227   1.383       .  S
C1223      F1228   1.383       .  S
C1223      F1229   1.382       .  S
C1226      F1230   1.380       .  S
C1226      F1231   1.384       .  S
C1226      F1232   1.383       .  S
C1233      C1234   1.406       .  A
C1233      C1238   1.412       .  A
C1233      H1240   1.084       .  S
C1234      C1235   1.418       .  A
C1235      C1236   1.398       .  A
C1235      C1242   1.515   1_554  S
C1236      C1237   1.399       .  A
C1236      H1241   1.085   1_554  S
C1237      C1238   1.417       .  A
C1238      C1239   1.514       .  S
C1239      F1243   1.382       .  S
C1239      F1244   1.382       .  S
C1239      F1245   1.383       .  S
C1242      F1246   1.383       .  S
C1242      F1247   1.380       .  S
C1242      F1248   1.384       .  S
C1249      C1250   1.407   1_554  A
C1249      C1254   1.416       .  A
C1249      H1256   1.080       .  S
C1250      C1251   1.411       .  A
C1251      C1252   1.400       .  A
C1251      C1258   1.514       .  S
C1252      C1253   1.403       .  A
C1252      H1257   1.076       .  S
C1253      C1254   1.418   1_556  A
C1254      C1255   1.516       .  S
C1255      F1259   1.384       .  S
C1255      F1260   1.383       .  S
C1255      F1261   1.382       .  S
C1258      F1262   1.384       .  S
C1258      F1263   1.383       .  S
C1258      F1264   1.384       .  S
C1265      C1266   1.406       .  A
C1265      C1270   1.403       .  A
C1265      H1272   1.084       .  S
C1266      C1267   1.415       .  A
C1267      C1268   1.404       .  A
C1267      C1274   1.519       .  S
C1268      C1269   1.406       .  A
C1268      H1273   1.084       .  S
C1269      C1270   1.414       .  A
C1270      C1271   1.519       .  S
C1271      F1275   1.385       .  S
C1271      F1276   1.382       .  S
C1271      F1277   1.383   1_556  S
C1274      F1278   1.383       .  S
C1274      F1279   1.383       .  S
C1274      F1280   1.385       .  S
C1281      C1282   1.400       .  A
C1281      C1286   1.401       .  A
C1281      H1288   1.086       .  S
C1282      C1283   1.417       .  A
C1283      C1284   1.412       .  A
C1283      C1290   1.516       .  S
C1284      C1285   1.406       .  A
C1284      H1289   1.085       .  S
C1285      C1286   1.413       .  A
C1286      C1287   1.511       .  S
C1287      F1291   1.384       .  S
C1287      F1292   1.383       .  S
C1287      F1293   1.380       .  S
C1290      F1294   1.383       .  S
C1290      F1295   1.383       .  S
C1290      F1296   1.384       .  S
C1297      C1298   1.403       .  A
C1297      C1302   1.405       .  A
C1297      H1304   1.083       .  S
C1298      C1299   1.425   1_655  A
C1299      C1300   1.415       .  A
C1299      C1306   1.519       .  S
C1300      C1301   1.404       .  A
C1300      H1305   1.083       .  S
C1301      C1302   1.424   1_455  A
C1302      C1303   1.522       .  S
C1303      F1307   1.385       .  S
C1303      F1308   1.382       .  S
C1303      F1309   1.383       .  S
C1306      F1310   1.382       .  S
C1306      F1311   1.384       .  S
C1306      F1312   1.385       .  S
C1313      C1314   1.404       .  A
C1313      C1318   1.405       .  A
C1313      H1320   1.083       .  S
C1314      C1315   1.428       .  A
C1315      C1316   1.416       .  A
C1315      C1322   1.521       .  S
C1316      C1317   1.404       .  A
C1316      H1321   1.083       .  S
C1317      C1318   1.419       .  A
C1318      C1319   1.520       .  S
C1319      F1323   1.385       .  S
C1319      F1324   1.383       .  S
C1319      F1325   1.382       .  S
C1322      F1326   1.383       .  S
C1322      F1327   1.383       .  S
C1322      F1328   1.385       .  S
C1329      C1330   1.405       .  A
C1329      C1334   1.403       .  A
C1329      H1336   1.081       .  S
C1330      C1331   1.417       .  A
C1331      C1332   1.404       .  A
C1331      C1338   1.521       .  S
C1332      C1333   1.405       .  A
C1332      H1337   1.084       .  S
C1333      C1334   1.414       .  A
C1334      C1335   1.520       .  S
C1335      F1339   1.385       .  S
C1335      F1340   1.383       .  S
C1335      F1341   1.384       .  S
C1338      F1342   1.383       .  S
C1338      F1343   1.384       .  S
C1338      F1344   1.385       .  S
C1345      C1346   1.408       .  A
C1345      C1350   1.409       .  A
C1345      H1352   1.082       .  S
C1346      C1347   1.415       .  A
C1347      C1348   1.410       .  A
C1347      C1354   1.515       .  S
C1348      C1349   1.406       .  A
C1348      H1353   1.083       .  S
C1349      C1350   1.414       .  A
C1350      C1351   1.518       .  S
C1351      F1355   1.384       .  S
C1351      F1356   1.383       .  S
C1351      F1357   1.384       .  S
C1354      F1358   1.383       .  S
C1354      F1359   1.382       .  S
C1354      F1360   1.384       .  S
C1361      C1362   1.406       .  A
C1361      C1366   1.408       .  A
C1361      H1368   1.083   1_545  S
C1362      C1363   1.419       .  A
C1363      C1364   1.408       .  A
C1363      C1370   1.518       .  S
C1364      C1365   1.403       .  A
C1364      H1369   1.082       .  S
C1365      C1366   1.416       .  A
C1366      C1367   1.519       .  S
C1367      F1371   1.384       .  S
C1367      F1372   1.384   1_545  S
C1367      F1373   1.382       .  S
C1370      F1374   1.380   1_545  S
C1370      F1375   1.382       .  S
C1370      F1376   1.385       .  S
C1377      C1378   1.403       .  A
C1377      C1382   1.409       .  A
C1377      H1384   1.083       .  S
C1378      C1379   1.419       .  A
C1379      C1380   1.405       .  A
C1379      C1386   1.521   1_545  S
C1380      C1381   1.403       .  A
C1380      H1385   1.083       .  S
C1381      C1382   1.420       .  A
C1382      C1383   1.517       .  S
C1383      F1387   1.384       .  S
C1383      F1388   1.383       .  S
C1383      F1389   1.380       .  S
C1386      F1390   1.383   1_565  S
C1386      F1391   1.384       .  S
C1386      F1392   1.384       .  S
C1393      C1394   1.403       .  A
C1393      C1398   1.407       .  A
C1393      H1400   1.084       .  S
C1394      C1395   1.416       .  A
C1395      C1396   1.398       .  A
C1395      C1402   1.509   1_455  S
C1396      C1397   1.395       .  A
C1396      H1401   1.084   1_455  S
C1397      C1398   1.414       .  A
C1398      C1399   1.517       .  S
C1399      F1403   1.384       .  S
C1399      F1404   1.381       .  S
C1399      F1405   1.383       .  S
C1402      F1406   1.381       .  S
C1402      F1407   1.381       .  S
C1402      F1408   1.384       .  S
C1409      C1410   1.403       .  A
C1409      C1414   1.410       .  A
C1409      H1416   1.083       .  S
C1410      C1411   1.413       .  A
C1411      C1412   1.401       .  A
C1411      C1418   1.521   1_655  S
C1412      C1413   1.407       .  A
C1412      H1417   1.083       .  S
C1413      C1414   1.423       .  A
C1414      C1415   1.519       .  S
C1415      F1419   1.385       .  S
C1415      F1420   1.383       .  S
C1415      F1421   1.383       .  S
C1418      F1422   1.383       .  S
C1418      F1423   1.382   1_455  S
C1418      F1424   1.384       .  S
C1425      C1426   1.403       .  A
C1425      C1430   1.414       .  A
C1425      H1432   1.083       .  S
C1426      C1427   1.417   1_565  A
C1427      C1428   1.395       .  A
C1427      C1434   1.516       .  S
C1428      C1429   1.400       .  A
C1428      H1433   1.086       .  S
C1429      C1430   1.421   1_545  A
C1430      C1431   1.515       .  S
C1431      F1435   1.385       .  S
C1431      F1436   1.382       .  S
C1431      F1437   1.374       .  S
C1434      F1438   1.381       .  S
C1434      F1439   1.383       .  S
C1434      F1440   1.383       .  S
C1441      C1442   1.402       .  A
C1441      C1446   1.404       .  A
C1441      H1448   1.083       .  S
C1442      C1443   1.421       .  A
C1443      C1444   1.408       .  A
C1443      C1450   1.521       .  S
C1444      C1445   1.403       .  A
C1444      H1449   1.083       .  S
C1445      C1446   1.418       .  A
C1446      C1447   1.520       .  S
C1447      F1451   1.385       .  S
C1447      F1452   1.382       .  S
C1447      F1453   1.383   1_655  S
C1450      F1454   1.382       .  S
C1450      F1455   1.383       .  S
C1450      F1456   1.385       .  S
C1457      C1458   1.398       .  A
C1457      C1462   1.387       .  A
C1457      H1464   1.084       .  S
C1458      C1459   1.415       .  A
C1459      C1460   1.420       .  A
C1459      C1466   1.514       .  S
C1460      C1461   1.411       .  A
C1460      H1465   1.083       .  S
C1461      C1462   1.427       .  A
C1462      C1463   1.530       .  S
C1463      F1467   1.385       .  S
C1463      F1468   1.375       .  S
C1463      F1469   1.383       .  S
C1466      F1470   1.383       .  S
C1466      F1471   1.383       .  S
C1466      F1472   1.384       .  S
C1473      C1474   1.406       .  A
C1473      C1478   1.418       .  A
C1473      H1480   1.083       .  S
C1474      C1475   1.420       .  A
C1475      C1476   1.406       .  A
C1475      C1482   1.522       .  S
C1476      C1477   1.405       .  A
C1476      H1481   1.083       .  S
C1477      C1478   1.424       .  A
C1478      C1479   1.518       .  S
C1479      F1483   1.385       .  S
C1479      F1484   1.382       .  S
C1479      F1485   1.384       .  S
C1482      F1486   1.382       .  S
C1482      F1487   1.383       .  S
C1482      F1488   1.385       .  S
C1489      C1490   1.405       .  A
C1489      C1494   1.404       .  A
C1489      H1496   1.084       .  S
C1490      C1491   1.422   1_655  A
C1491      C1492   1.412       .  A
C1491      C1498   1.516       .  S
C1492      C1493   1.401   1_455  A
C1492      H1497   1.082       .  S
C1493      C1494   1.414       .  A
C1494      C1495   1.517       .  S
C1495      F1499   1.384       .  S
C1495      F1500   1.381       .  S
C1495      F1501   1.384       .  S
C1498      F1502   1.382       .  S
C1498      F1503   1.383       .  S
C1498      F1504   1.384       .  S
C1505      C1506   1.400       .  A
C1505      C1510   1.411       .  A
C1505      H1512   1.083       .  S
C1506      C1507   1.409       .  A
C1507      C1508   1.404       .  A
C1507      C1514   1.519       .  S
C1508      C1509   1.411       .  A
C1508      H1513   1.082   1_565  S
C1509      C1510   1.428       .  A
C1510      C1511   1.522       .  S
C1511      F1515   1.385       .  S
C1511      F1516   1.384   1_565  S
C1511      F1517   1.383       .  S
C1514      F1518   1.384   1_565  S
C1514      F1519   1.382       .  S
C1514      F1520   1.384   1_565  S
C1521      C1522   1.404       .  A
C1521      C1526   1.413       .  A
C1521      H1528   1.083       .  S
C1522      C1523   1.416       .  A
C1523      C1524   1.402       .  A
C1523      C1530   1.509       .  S
C1524      C1525   1.399       .  A
C1524      H1529   1.084       .  S
C1525      C1526   1.419       .  A
C1526      C1527   1.518       .  S
C1527      F1531   1.385   1_565  S
C1527      F1532   1.380   1_565  S
C1527      F1533   1.383       .  S
C1530      F1534   1.383       .  S
C1530      F1535   1.382       .  S
C1530      F1536   1.384       .  S
C1537      C1538   1.406   1_455  A
C1537      C1542   1.398       .  A
C1537      H1544   1.085       .  S
C1538      C1539   1.426       .  A
C1539      C1540   1.413       .  A
C1539      C1546   1.515       .  S
C1540      C1541   1.399   1_655  A
C1540      H1545   1.083       .  S
C1541      C1542   1.411       .  A
C1542      C1543   1.516       .  S
C1543      F1547   1.384       .  S
C1543      F1548   1.383       .  S
C1543      F1549   1.383       .  S
C1546      F1550   1.379       .  S
C1546      F1551   1.372       .  S
C1546      F1552   1.385       .  S
C1553      C1554   1.404       .  A
C1553      C1558   1.412       .  A
C1553      H1560   1.083       .  S
C1554      C1555   1.416       .  A
C1555      C1556   1.404       .  A
C1555      C1562   1.511   1_655  S
C1556      C1557   1.401       .  A
C1556      H1561   1.084       .  S
C1557      C1558   1.420       .  A
C1558      C1559   1.516       .  S
C1559      F1563   1.385       .  S
C1559      F1564   1.384       .  S
C1559      F1565   1.381       .  S
C1562      F1566   1.383       .  S
C1562      F1567   1.380       .  S
C1562      F1568   1.385       .  S
C1569      C1570   1.399       .  A
C1569      C1574   1.406       .  A
C1569      H1576   1.084       .  S
C1570      C1571   1.417       .  A
C1571      C1572   1.407       .  A
C1571      C1578   1.519       .  S
C1572      C1573   1.404       .  A
C1572      H1577   1.083       .  S
C1573      C1574   1.422       .  A
C1574      C1575   1.517       .  S
C1575      F1579   1.385       .  S
C1575      F1580   1.380   1_455  S
C1575      F1581   1.384       .  S
C1578      F1582   1.382       .  S
C1578      F1583   1.384       .  S
C1578      F1584   1.385       .  S
C1585      C1586   1.404       .  A
C1585      C1590   1.408       .  A
C1585      H1592   1.083       .  S
C1586      C1587   1.426       .  A
C1587      C1588   1.406       .  A
C1587      C1594   1.521       .  S
C1588      C1589   1.398       .  A
C1588      H1593   1.084       .  S
C1589      C1590   1.420       .  A
C1590      C1591   1.520       .  S
C1591      F1595   1.384       .  S
C1591      F1596   1.383       .  S
C1591      F1597   1.383       .  S
C1594      F1598   1.383       .  S
C1594      F1599   1.383       .  S
C1594      F1600   1.385       .  S
C1601      C1602   1.405       .  A
C1601      C1606   1.411       .  A
C1601      H1608   1.083       .  S
C1602      C1603   1.415       .  A
C1603      C1604   1.411       .  A
C1603      C1610   1.516       .  S
C1604      C1605   1.406       .  A
C1604      H1609   1.084       .  S
C1605      C1606   1.415       .  A
C1606      C1607   1.514       .  S
C1607      F1611   1.385       .  S
C1607      F1612   1.382       .  S
C1607      F1613   1.383       .  S
C1610      F1614   1.383       .  S
C1610      F1615   1.383       .  S
C1610      F1616   1.385       .  S
C1617      C1618   1.407       .  A
C1617      C1622   1.409       .  A
C1617      H1624   1.081       .  S
C1618      C1619   1.420       .  A
C1619      C1620   1.405       .  A
C1619      C1626   1.520   1_545  S
C1620      C1621   1.401       .  A
C1620      H1625   1.084       .  S
C1621      C1622   1.414       .  A
C1622      C1623   1.518       .  S
C1623      F1627   1.385       .  S
C1623      F1628   1.381       .  S
C1623      F1629   1.383       .  S
C1626      F1630   1.380       .  S
C1626      F1631   1.380       .  S
C1626      F1632   1.385       .  S
C1633      C1634   1.405       .  A
C1633      C1638   1.417       .  A
C1633      H1640   1.083       .  S
C1634      C1635   1.418   1_545  A
C1635      C1636   1.395       .  A
C1635      C1642   1.516       .  S
C1636      C1637   1.400       .  A
C1636      H1641   1.085       .  S
C1637      C1638   1.423   1_565  A
C1638      C1639   1.516       .  S
C1639      F1643   1.384       .  S
C1639      F1644   1.377       .  S
C1639      F1645   1.383   1_545  S
C1642      F1646   1.383       .  S
C1642      F1647   1.383       .  S
C1642      F1648   1.384       .  S
C1649      C1650   1.402   1_565  A
C1649      C1654   1.406       .  A
C1649      H1656   1.083   1_565  S
C1650      C1651   1.420   1_545  A
C1651      C1652   1.408       .  A
C1651      C1658   1.519       .  S
C1652      C1653   1.404       .  A
C1652      H1657   1.083       .  S
C1653      C1654   1.421       .  A
C1654      C1655   1.521       .  S
C1655      F1659   1.385       .  S
C1655      F1660   1.382       .  S
C1655      F1661   1.384       .  S
C1658      F1662   1.382   1_565  S
C1658      F1663   1.384       .  S
C1658      F1664   1.385       .  S
C1665      C1666   1.406       .  A
C1665      C1670   1.421       .  A
C1665      H1672   1.083       .  S
C1666      C1667   1.422       .  A
C1667      C1668   1.394       .  A
C1667      C1674   1.527       .  S
C1668      C1669   1.404       .  A
C1668      H1673   1.082       .  S
C1669      C1670   1.423       .  A
C1670      C1671   1.515       .  S
C1671      F1675   1.385       .  S
C1671      F1676   1.383       .  S
C1671      F1677   1.382       .  S
C1674      F1678   1.377       .  S
C1674      F1679   1.382       .  S
C1674      F1680   1.385       .  S
